  SciTegic12192217542D

 27 30  0  0  1  0            999 V2000
    1.0497   -4.2139    0.0000 C   0  0
    1.5767   -2.8095    0.0000 C   0  0
    3.0226   -2.4104    0.0000 N   0  0
    3.0899   -0.9120    0.0000 C   0  0
    1.6852   -0.3846    0.0000 C   0  0
    1.3514    1.0778    0.0000 C   0  0
    0.0000    1.7286    0.0000 C   0  0
   -1.3515    1.0777    0.0000 N   0  0
   -1.6852   -0.3847    0.0000 C   0  0
   -0.7500   -1.5574    0.0000 C   0  0
    0.7500   -1.5574    0.0000 N   0  0
   -2.5248    2.0134    0.0000 C   0  0
   -2.2261    3.4874    0.0000 C   0  0
   -3.3495    4.4814    0.0000 C   0  0
   -4.7720    4.0055    0.0000 C   0  0
   -5.8954    4.9995    0.0000 F   0  0
   -5.0711    2.5356    0.0000 C   0  0
   -3.9477    1.5416    0.0000 C   0  0
    4.3404   -0.0867    0.0000 C   0  0  2  0  0  0
    4.2503    1.4106    0.0000 C   0  0
    2.9703    0.5942    0.0000 C   0  0
    2.1368    0.0417    0.0000 N   0  0
    5.6830   -0.7573    0.0000 N   0  0
    5.9099   -2.2271    0.0000 C   0  0
    7.3933   -2.4499    0.0000 C   0  0
    8.0635   -1.1079    0.0000 C   0  0
    6.9944   -0.0558    0.0000 C   0  0
  1  2  1  0
  2  3  2  0
  3  4  1  0
  4  5  2  0
  5  6  1  0
  6  7  1  0
  7  8  1  0
  8  9  1  0
  9 10  1  0
 10 11  1  0
 11  2  1  0
 11  5  1  0
  8 12  1  0
 12 13  2  0
 13 14  1  0
 14 15  2  0
 15 16  1  0
 15 17  1  0
 17 18  2  0
 18 12  1  0
  4 19  1  0
 19 20  1  1
 19 21  1  0
 21 22  1  0
 19 23  1  0
 23 24  1  0
 24 25  2  0
 25 26  1  0
 26 27  2  0
 27 23  1  0
M  END
> <Score_ID>
J60

> <ID_class>
J

> <No>
1712

> <Canonical_Smiles>
Cc1nc(c2CCN(CCn12)c3ccc(F)cc3)[C@](C)(CN)n4cccc4

$$$$

  SciTegic12192217542D

 26 28  0  0  0  0            999 V2000
    6.4451   -1.8434    0.0000 C   0  0
    4.9531   -1.9978    0.0000 C   0  0
    4.2010   -3.2956    0.0000 C   0  0
    2.7343   -2.9815    0.0000 C   0  0
    2.5987   -1.5004    0.0000 C   0  0
    1.2990   -0.7500    0.0000 C   0  0
    1.2990    0.7500    0.0000 C   0  0
    0.0000    1.5000    0.0000 C   0  0
   -1.2990    0.7500    0.0000 C   0  0
   -1.2990   -0.7500    0.0000 C   0  0
    0.0000   -1.5000    0.0000 C   0  0
    0.0000   -3.0000    0.0000 F   0  0
    3.9511   -0.8815    0.0000 N   0  0
    4.2566    0.5871    0.0000 C   0  0
    4.8054   -4.6666    0.0000 C   0  0
    6.2966   -4.8284    0.0000 O   0  0
    3.9195   -5.8781    0.0000 N   0  0
    4.5250   -7.2514    0.0000 C   0  0
    3.6391   -8.4629    0.0000 C   0  0
    4.2422   -9.8364    0.0000 C   0  0
    3.3544  -11.0454    0.0000 C   0  0
    1.8634  -10.8811    0.0000 C   0  0
    0.9756  -12.0901    0.0000 O   0  0
    1.2603   -9.5077    0.0000 C   0  0
   -0.2307   -9.3433    0.0000 S   0  0
    2.1481   -8.2986    0.0000 C   0  0
  1  2  1  0
  2  3  2  0
  3  4  1  0
  4  5  2  0
  5  6  1  0
  6  7  2  0
  7  8  1  0
  8  9  2  0
  9 10  1  0
 10 11  2  0
 11  6  1  0
 11 12  1  0
  5 13  1  0
 13  2  1  0
 13 14  1  0
  3 15  1  0
 15 16  2  0
 15 17  1  0
 17 18  1  0
 18 19  1  0
 19 20  2  0
 20 21  1  0
 21 22  2  0
 22 23  1  0
 22 24  1  0
 24 25  1  0
 24 26  2  0
 26 19  1  0
M  END
> <Score_ID>
J61

> <ID_class>
J

> <No>
1713

> <Canonical_Smiles>
Cc1c(cc(c2ccccc2F)n1C)C(=O)NCc3ccc(O)c(S)c3

$$$$

  SciTegic12192217542D

 26 28  0  0  1  0            999 V2000
    2.5951   -3.0031    0.0000 C   0  0
    2.5973   -1.5031    0.0000 N   0  0
    3.8976   -0.7553    0.0000 C   0  0
    1.2990   -0.7500    0.0000 C   0  0
    1.2990    0.7500    0.0000 C   0  0
    0.0000    1.5000    0.0000 C   0  0
   -1.2990    0.7500    0.0000 C   0  0
   -1.2990   -0.7500    0.0000 C   0  0
    0.0000   -1.5000    0.0000 C   0  0
   -2.5988    1.5004    0.0000 C   0  0  1  0  0  0
   -3.8976    0.7500    0.0000 C   0  0
   -3.8982    2.2498    0.0000 S   0  0
   -2.5998    3.0012    0.0000 C   0  0
   -3.8995    3.7516    0.0000 N   0  0
   -5.2496    3.1278    0.0000 C   0  0
   -6.2556    4.2405    0.0000 C   0  0
   -5.5083    5.5410    0.0000 C   0  0
   -6.1212    6.9101    0.0000 C   0  0
   -4.0404    5.2322    0.0000 C   0  0
   -2.9213    6.2320    0.0000 C   0  0
   -1.4690    5.8779    0.0000 C   0  0
   -0.4333    6.9630    0.0000 C   0  0
   -0.8551    8.4024    0.0000 C   0  0
    0.1806    9.4875    0.0000 F   0  0
   -2.3127    8.7569    0.0000 C   0  0
   -3.3484    7.6719    0.0000 C   0  0
  1  2  1  0
  2  3  1  0
  2  4  1  0
  4  5  2  0
  5  6  1  0
  6  7  2  0
  7  8  1  0
  8  9  2  0
  9  4  1  0
  7 10  1  0
 10 11  1  6
 10 12  1  0
 10 13  1  0
 13 14  1  0
 14 15  1  0
 15 16  2  0
 16 17  1  0
 17 18  1  0
 17 19  2  0
 19 14  1  0
 19 20  1  0
 20 21  2  0
 21 22  1  0
 22 23  2  0
 23 24  1  0
 23 25  1  0
 25 26  2  0
 26 20  1  0
M  END
> <Score_ID>
J62

> <ID_class>
J

> <No>
1714

> <Canonical_Smiles>
CN(C)c1ccc(cc1)[C@@](C)(S)Cn2ccc(C)c2c3ccc(F)cc3

$$$$

  SciTegic12192217542D

 26 28  0  0  0  0            999 V2000
    3.4276    3.0520    0.0000 C   0  0
    3.1277    1.5822    0.0000 N   0  0
    4.2506    0.5865    0.0000 C   0  0
    5.6735    1.0612    0.0000 S   0  0
    3.9511   -0.8815    0.0000 C   0  0
    4.9531   -1.9978    0.0000 C   0  0
    6.4451   -1.8434    0.0000 C   0  0
    4.2010   -3.2956    0.0000 N   0  0
    2.7343   -2.9815    0.0000 C   0  0
    2.5987   -1.5004    0.0000 C   0  0
    1.2990   -0.7500    0.0000 C   0  0
    1.2990    0.7500    0.0000 C   0  0
    0.0000    1.5000    0.0000 C   0  0
   -0.0031    3.0008    0.0000 O   0  0
   -1.3032    3.7490    0.0000 C   0  0
   -1.2990    0.7500    0.0000 C   0  0
   -1.2990   -0.7500    0.0000 C   0  0
    0.0000   -1.5000    0.0000 C   0  0
    0.0000   -3.0000    0.0000 C   0  0
    4.8092   -4.6676    0.0000 C   0  0
    6.2798   -4.9368    0.0000 C   0  0
    6.7829   -6.3499    0.0000 C   0  0
    5.8106   -7.4921    0.0000 C   0  0
    6.3136   -8.9053    0.0000 F   0  0
    4.3352   -7.2212    0.0000 C   0  0
    3.8322   -5.8080    0.0000 C   0  0
  1  2  1  0
  2  3  1  0
  3  4  2  0
  3  5  1  0
  5  6  2  0
  6  7  1  0
  6  8  1  0
  8  9  1  0
  9 10  2  0
 10  5  1  0
 10 11  1  0
 11 12  2  0
 12 13  1  0
 13 14  1  0
 14 15  1  0
 13 16  2  0
 16 17  1  0
 17 18  2  0
 18 11  1  0
 18 19  1  0
  8 20  1  0
 20 21  2  0
 21 22  1  0
 22 23  2  0
 23 24  1  0
 23 25  1  0
 25 26  2  0
 26 20  1  0
M  END
> <Score_ID>
J63

> <ID_class>
J

> <No>
1715

> <Canonical_Smiles>
CNC(=S)c1c(C)n(cc1c2cc(OC)ccc2C)c3ccc(F)cc3

$$$$

  SciTegic12192217542D

 27 30  0  0  1  0            999 V2000
    7.5255   -5.0525    0.0000 C   0  0
    7.4553   -6.5508    0.0000 N   0  0
    6.1224   -7.2404    0.0000 C   0  0  2  0  0  0
    6.1918   -5.7420    0.0000 C   0  0
    6.0536   -8.7397    0.0000 C   0  0
    7.3171   -9.5497    0.0000 N   0  0
    7.3891  -11.0352    0.0000 C   0  0
    8.8410  -11.4119    0.0000 N   0  0
    9.6480  -10.1474    0.0000 C   0  0
    8.6948   -8.9892    0.0000 N   0  0
    4.8611   -6.4319    0.0000 C   0  0
    4.7737   -4.9344    0.0000 N   0  0
    3.3305   -4.5751    0.0000 C   0  0
    2.5131   -5.8175    0.0000 C   0  0
    3.4639   -6.9777    0.0000 C   0  0
    3.0842   -8.4288    0.0000 C   0  0
    2.7822   -3.1780    0.0000 C   0  0
    3.7175   -2.0053    0.0000 C   0  0
    3.1695   -0.6090    0.0000 C   0  0
    1.6852   -0.3846    0.0000 C   0  0
    1.3514    1.0778    0.0000 O   0  0
    0.0000    1.7286    0.0000 C   0  0
   -1.3515    1.0777    0.0000 C   0  0
   -1.6852   -0.3847    0.0000 O   0  0
   -0.7500   -1.5574    0.0000 C   0  0
    0.7500   -1.5574    0.0000 C   0  0
    1.2990   -2.9545    0.0000 C   0  0
  1  2  1  0
  2  3  1  0
  3  4  1  1
  3  5  1  0
  5  6  1  0
  6  7  1  0
  7  8  2  0
  8  9  1  0
  9 10  2  0
 10  6  1  0
  3 11  1  0
 11 12  1  0
 12 13  1  0
 13 14  2  0
 14 15  1  0
 15 11  2  0
 15 16  1  0
 13 17  1  0
 17 18  2  0
 18 19  1  0
 19 20  2  0
 20 21  1  0
 21 22  1  0
 22 23  1  0
 23 24  1  0
 24 25  1  0
 25 26  1  0
 26 20  1  0
 26 27  2  0
 27 17  1  0
M  END
> <Score_ID>
J64

> <ID_class>
J

> <No>
1716

> <Canonical_Smiles>
CN[C@](C)(Cn1cncn1)c2[nH]c(cc2C)c3ccc4OCCOCc4c3

$$$$

  SciTegic12192217542D

 27 29  0  0  1  0            999 V2000
    2.5981   -1.5000    0.0000 C   0  0
    1.2990   -0.7500    0.0000 N   0  0
    1.2990    0.7500    0.0000 C   0  0
    0.0000    1.5000    0.0000 C   0  0
   -1.2990    0.7500    0.0000 N   0  0
   -1.2990   -0.7500    0.0000 C   0  0
    0.0000   -1.5000    0.0000 C   0  0
   -2.5988    1.5004    0.0000 C   0  0  2  0  0  0
   -3.8976    0.7500    0.0000 C   0  0
   -2.5976   -0.0296    0.0000 C   0  0
   -2.5965   -1.5296    0.0000 N   0  0
   -2.5998    3.0012    0.0000 C   0  0
   -3.8138    3.8602    0.0000 C   0  0
   -3.3512    5.2871    0.0000 N   0  0
   -4.2352    6.4968    0.0000 C   0  0
   -5.7274    6.3368    0.0000 C   0  0
   -6.6142    7.5467    0.0000 C   0  0
   -8.1053    7.3837    0.0000 C   0  0
   -8.7098    6.0109    0.0000 C   0  0
   -7.8231    4.8010    0.0000 C   0  0
   -6.3320    4.9640    0.0000 C   0  0
  -10.2014    5.8448    0.0000 N   0  3
  -10.8039    4.4712    0.0000 O   0  0
  -11.0902    7.0532    0.0000 O   0  5
   -1.8512    5.2880    0.0000 C   0  0
   -0.9703    6.5021    0.0000 C   0  0
   -1.3868    3.8617    0.0000 N   0  0
  1  2  1  0
  2  3  1  0
  3  4  1  0
  4  5  1  0
  5  6  1  0
  6  7  1  0
  7  2  1  0
  5  8  1  0
  8  9  1  1
  8 10  1  0
 10 11  3  0
  8 12  1  0
 12 13  2  0
 13 14  1  0
 14 15  1  0
 15 16  1  0
 16 17  2  0
 17 18  1  0
 18 19  2  0
 19 20  1  0
 20 21  2  0
 21 16  1  0
 19 22  1  0
 22 23  2  0
 22 24  1  0
 14 25  1  0
 25 26  1  0
 25 27  2  0
 27 12  1  0
M  CHG  2  22   1  24  -1
M  END
> <Score_ID>
J65

> <ID_class>
J

> <No>
1717

> <Canonical_Smiles>
CN1CCN(CC1)[C@](C)(C#N)c2cn(Cc3ccc(cc3)[N+](=O)[O-])c(C)n2

$$$$

  SciTegic12192217542D

 27 29  0  0  0  0            999 V2000
    6.7075   -4.4318    0.0000 C   0  0
    7.3221   -3.0635    0.0000 N   0  0
    6.4437   -1.8466    0.0000 C   0  0
    4.9531   -1.9978    0.0000 C   0  0
    3.9511   -0.8815    0.0000 C   0  0
    4.2566    0.5871    0.0000 C   0  0
    2.5987   -1.5004    0.0000 C   0  0
    2.7343   -2.9815    0.0000 N   0  0
    4.2010   -3.2956    0.0000 C   0  0
    4.8089   -4.6669    0.0000 N   0  0
    1.2990   -0.7500    0.0000 C   0  0
    1.2990    0.7500    0.0000 C   0  0
    0.0000    1.5000    0.0000 C   0  0
   -1.2990    0.7500    0.0000 C   0  0
   -1.2990   -0.7500    0.0000 C   0  0
   -2.5981   -1.5000    0.0000 F   0  0
    0.0000   -1.5000    0.0000 C   0  0
    8.8153   -2.9121    0.0000 C   0  0
    9.4277   -1.5427    0.0000 C   0  0
   10.9198   -1.3884    0.0000 C   0  0
   11.5321   -0.0191    0.0000 C   0  0
   11.7995   -2.6033    0.0000 C   0  0
   11.1871   -3.9727    0.0000 C   0  0
    9.6951   -4.1270    0.0000 C   0  0
    9.0853   -5.4984    0.0000 N   0  3
    9.9668   -6.7121    0.0000 O   0  0
    7.5935   -5.6554    0.0000 O   0  5
  1  2  1  0
  2  3  1  0
  3  4  1  0
  4  5  1  0
  5  6  1  0
  5  7  2  0
  7  8  1  0
  8  9  1  0
  9  4  2  0
  9 10  1  0
  7 11  1  0
 11 12  2  0
 12 13  1  0
 13 14  2  0
 14 15  1  0
 15 16  1  0
 15 17  2  0
 17 11  1  0
  2 18  1  0
 18 19  2  0
 19 20  1  0
 20 21  1  0
 20 22  2  0
 22 23  1  0
 23 24  2  0
 24 18  1  0
 24 25  1  0
 25 26  2  0
 25 27  1  0
M  CHG  2  25   1  27  -1
M  END
> <Score_ID>
J66

> <ID_class>
J

> <No>
1718

> <Canonical_Smiles>
CN(Cc1c(C)c([nH]c1N)c2cccc(F)c2)c3cc(C)ccc3[N+](=O)[O-]

$$$$

  SciTegic12192217542D

 27 29  0  0  0  0            999 V2000
    2.5981   -1.5000    0.0000 C   0  0
    1.2990   -0.7500    0.0000 C   0  0
    1.2990    0.7500    0.0000 C   0  0
    0.0000    1.5000    0.0000 C   0  0
   -0.0031    3.0008    0.0000 N   0  0
   -1.3039    3.7494    0.0000 C   0  0
   -2.6017    2.9971    0.0000 O   0  0
   -1.3070    5.2502    0.0000 C   0  0
   -2.5205    6.1100    0.0000 C   0  0
   -2.0570    7.5366    0.0000 C   0  0
   -2.9387    8.7501    0.0000 C   0  0
   -0.5570    7.5366    0.0000 C   0  0
   -0.0935    6.1100    0.0000 N   0  0
    1.3303    5.6381    0.0000 N   0  0
   -3.9451    5.6378    0.0000 C   0  0
   -4.3615    4.2022    0.0000 C   0  0
   -5.8183    3.8448    0.0000 C   0  0
   -6.8563    4.9276    0.0000 C   0  0
   -6.4374    6.3680    0.0000 C   0  0
   -7.4754    7.4509    0.0000 F   0  0
   -4.9807    6.7254    0.0000 C   0  0
   -1.2990    0.7500    0.0000 C   0  0
   -1.2990   -0.7500    0.0000 C   0  0
    0.0000   -1.5000    0.0000 C   0  0
   -2.5972   -1.5031    0.0000 N   0  3
   -2.5951   -3.0031    0.0000 O   0  0
   -3.8976   -0.7554    0.0000 O   0  5
  1  2  1  0
  2  3  2  0
  3  4  1  0
  4  5  1  0
  5  6  1  0
  6  7  2  0
  6  8  1  0
  8  9  2  0
  9 10  1  0
 10 11  1  0
 10 12  2  0
 12 13  1  0
 13  8  1  0
 13 14  1  0
  9 15  1  0
 15 16  2  0
 16 17  1  0
 17 18  2  0
 18 19  1  0
 19 20  1  0
 19 21  2  0
 21 15  1  0
  4 22  2  0
 22 23  1  0
 23 24  2  0
 24  2  1  0
 23 25  1  0
 25 26  2  0
 25 27  1  0
M  CHG  2  25   1  27  -1
M  END
> <Score_ID>
J67

> <ID_class>
J

> <No>
1719

> <Canonical_Smiles>
Cc1cc(NC(=O)c2c(c(C)cn2N)c3cccc(F)c3)cc(c1)[N+](=O)[O-]

$$$$

  SciTegic12192217542D

 26 28  0  0  0  0            999 V2000
    2.5951   -3.0031    0.0000 C   0  0
    2.5973   -1.5031    0.0000 N   0  0
    3.8976   -0.7553    0.0000 C   0  0
    1.2990   -0.7500    0.0000 C   0  0
    1.2990    0.7500    0.0000 C   0  0
    0.0000    1.5000    0.0000 C   0  0
   -1.2990    0.7500    0.0000 C   0  0
   -2.6003    1.4977    0.0000 C   0  0
   -3.8990    0.7455    0.0000 N   0  0
   -5.2526    1.3618    0.0000 C   0  0
   -5.5608    2.8298    0.0000 C   0  0
   -6.2524    0.2436    0.0000 C   0  0
   -5.4979   -1.0529    0.0000 C   0  0
   -4.0317   -0.7359    0.0000 C   0  0
   -2.9070   -1.7295    0.0000 C   0  0
   -1.4568   -1.3674    0.0000 C   0  0
   -0.4151   -2.4467    0.0000 C   0  0
   -0.8289   -3.8884    0.0000 C   0  0
    0.2128   -4.9677    0.0000 F   0  0
   -2.2845   -4.2510    0.0000 C   0  0
   -3.3262   -3.1717    0.0000 C   0  0
   -7.7433    0.3919    0.0000 C   0  0
   -8.6190   -0.8260    0.0000 S   0  0
   -8.3605    1.7590    0.0000 N   0  0
   -1.2990   -0.7500    0.0000 C   0  0
    0.0000   -1.5000    0.0000 C   0  0
  1  2  1  0
  2  3  1  0
  2  4  1  0
  4  5  2  0
  5  6  1  0
  6  7  2  0
  7  8  1  0
  8  9  1  0
  9 10  1  0
 10 11  1  0
 10 12  2  0
 12 13  1  0
 13 14  2  0
 14  9  1  0
 14 15  1  0
 15 16  2  0
 16 17  1  0
 17 18  2  0
 18 19  1  0
 18 20  1  0
 20 21  2  0
 21 15  1  0
 12 22  1  0
 22 23  2  0
 22 24  1  0
  7 25  1  0
 25 26  2  0
 26  4  1  0
M  END
> <Score_ID>
J68

> <ID_class>
J

> <No>
1720

> <Canonical_Smiles>
CN(C)c1ccc(Cn2c(C)c(cc2c3ccc(F)cc3)C(=S)N)cc1

$$$$

  SciTegic12192217542D

 27 29  0  0  1  0            999 V2000
    2.5981   -1.5000    0.0000 C   0  0
    1.2990   -0.7500    0.0000 C   0  0
    1.2990    0.7500    0.0000 C   0  0
    0.0000    1.5000    0.0000 C   0  0
   -1.2990    0.7500    0.0000 C   0  0
   -2.5973    1.5031    0.0000 N   0  0
   -2.5951    3.0039    0.0000 C   0  0  1  0  0  0
   -3.8933    3.7570    0.0000 C   0  0
   -3.8934    5.2570    0.0000 C   0  0
   -5.1924    6.0070    0.0000 C   0  0
   -6.4915    5.2571    0.0000 C   0  0
   -7.7905    6.0071    0.0000 F   0  0
   -6.4915    3.7571    0.0000 C   0  0
   -5.1925    3.0070    0.0000 C   0  0
   -1.2941    3.7520    0.0000 C   0  0
   -1.1517    5.2325    0.0000 C   0  0
    0.3165    5.5398    0.0000 C   0  0
    0.9308    6.9082    0.0000 C   0  0
    1.0625    4.2384    0.0000 C   0  0
    0.0553    3.1268    0.0000 N   0  0
    0.2544    2.1469    0.0000 C   0  0
   -2.2675    6.2322    0.0000 N   0  3
   -1.9603    7.7004    0.0000 O   0  0
   -3.6928    5.7646    0.0000 O   0  5
   -1.2990   -0.7500    0.0000 C   0  0
   -2.5981   -1.5000    0.0000 C   0  0
    0.0000   -1.5000    0.0000 C   0  0
  1  2  1  0
  2  3  2  0
  3  4  1  0
  4  5  2  0
  5  6  1  0
  7  6  1  1
  7  8  1  0
  8  9  2  0
  9 10  1  0
 10 11  2  0
 11 12  1  0
 11 13  1  0
 13 14  2  0
 14  8  1  0
  7 15  1  0
 15 16  2  0
 16 17  1  0
 17 18  1  0
 17 19  2  0
 19 20  1  0
 20 15  1  0
 20 21  1  0
 16 22  1  0
 22 23  2  0
 22 24  1  0
  5 25  1  0
 25 26  1  0
 25 27  2  0
 27  2  1  0
M  CHG  2  22   1  24  -1
M  END
> <Score_ID>
J69

> <ID_class>
J

> <No>
1721

> <Canonical_Smiles>
Cc1ccc(N[C@@H](c2ccc(F)cc2)c3c(c(C)cn3C)[N+](=O)[O-])c(C)c1

$$$$

  SciTegic12192217542D

 27 29  0  0  0  0            999 V2000
    3.8983   -0.7459    0.0000 C   0  0
    2.6003   -1.4977    0.0000 N   0  0
    2.6030   -2.9977    0.0000 C   0  0
    1.2990   -0.7500    0.0000 C   0  0
    1.2990    0.7500    0.0000 C   0  0
    0.0000    1.5000    0.0000 C   0  0
   -1.2990    0.7500    0.0000 C   0  0
   -2.6003    1.4977    0.0000 C   0  0
   -3.8990    0.7455    0.0000 N   0  0
   -5.2526    1.3618    0.0000 C   0  0
   -5.5608    2.8298    0.0000 C   0  0
   -6.2524    0.2436    0.0000 C   0  0
   -5.4979   -1.0529    0.0000 C   0  0
   -4.0317   -0.7359    0.0000 C   0  0
   -2.9076   -1.7290    0.0000 C   0  0
   -6.1035   -2.4260    0.0000 C   0  0
   -5.1243   -3.5646    0.0000 C   0  0
   -5.6247   -4.9786    0.0000 C   0  0
   -7.0995   -5.2524    0.0000 C   0  0
   -8.0739   -4.1120    0.0000 C   0  0
   -7.5736   -2.6979    0.0000 C   0  0
   -8.5477   -1.5573    0.0000 F   0  0
   -1.2990   -0.7500    0.0000 C   0  0
    0.0000   -1.5000    0.0000 C   0  0
   -0.0031   -3.0008    0.0000 N   0  3
   -1.3032   -3.7490    0.0000 O   0  0
    1.2947   -3.7531    0.0000 O   0  5
  1  2  1  0
  2  3  1  0
  2  4  1  0
  4  5  2  0
  5  6  1  0
  6  7  2  0
  7  8  1  0
  8  9  1  0
  9 10  1  0
 10 11  1  0
 10 12  2  0
 12 13  1  0
 13 14  2  0
 14  9  1  0
 14 15  1  0
 13 16  1  0
 16 17  2  0
 17 18  1  0
 18 19  2  0
 19 20  1  0
 20 21  2  0
 21 16  1  0
 21 22  1  0
  7 23  1  0
 23 24  2  0
 24  4  1  0
 24 25  1  0
 25 26  2  0
 25 27  1  0
M  CHG  2  25   1  27  -1
M  END
> <Score_ID>
J70

> <ID_class>
J

> <No>
1722

> <Canonical_Smiles>
CN(C)c1ccc(Cn2c(C)cc(c2C)c3ccccc3F)cc1[N+](=O)[O-]

$$$$

  SciTegic12192217542D

 27 29  0  0  0  0            999 V2000
    8.1608   -2.8252    0.0000 C   0  0
    7.8525   -1.3573    0.0000 C   0  0
    6.4990   -0.7409    0.0000 C   0  0
    5.2003   -1.4932    0.0000 C   0  0
    3.8990   -0.7455    0.0000 C   0  0
    3.8964    0.7545    0.0000 N   0  0
    2.6003   -1.4977    0.0000 N   0  0
    1.2990   -0.7500    0.0000 C   0  0
    1.2990    0.7500    0.0000 C   0  0
    0.0000    1.5000    0.0000 C   0  0
   -1.2990    0.7500    0.0000 C   0  0
   -1.2990   -0.7500    0.0000 C   0  0
    0.0000   -1.5000    0.0000 C   0  0
    0.0000   -3.0000    0.0000 F   0  0
    6.6317    0.7404    0.0000 C   0  0
    8.0978    1.0574    0.0000 C   0  0
    8.7035    2.4305    0.0000 C   0  0
   10.2045    2.4751    0.0000 C   0  0
   10.9114    3.7981    0.0000 C   0  0
   10.1191    5.0718    0.0000 C   0  0
    8.6199    5.0225    0.0000 C   0  0
    7.9130    3.6995    0.0000 C   0  0
    6.4130    3.6514    0.0000 N   0  3
    5.6209    4.9253    0.0000 O   0  0
    5.7054    2.3288    0.0000 O   0  5
    8.8523   -0.2391    0.0000 N   0  0
   10.3447   -0.3907    0.0000 C   0  0
  1  2  1  0
  2  3  2  0
  3  4  1  0
  4  5  1  0
  5  6  2  0
  5  7  1  0
  7  8  1  0
  8  9  2  0
  9 10  1  0
 10 11  2  0
 11 12  1  0
 12 13  2  0
 13  8  1  0
 13 14  1  0
  3 15  1  0
 15 16  2  0
 16 17  1  0
 17 18  2  0
 18 19  1  0
 19 20  2  0
 20 21  1  0
 21 22  2  0
 22 17  1  0
 22 23  1  0
 23 24  2  0
 23 25  1  0
 16 26  1  0
 26  2  1  0
 26 27  1  0
M  CHG  2  23   1  25  -1
M  END
> <Score_ID>
J71

> <ID_class>
J

> <No>
1723

> <Canonical_Smiles>
Cc1c(CC(=N)Nc2ccccc2F)cc(c3ccccc3[N+](=O)[O-])n1C

$$$$

  SciTegic12192217542D

 27 29  0  0  0  0            999 V2000
    0.3605   -6.7453    0.0000 C   0  0
    1.4850   -5.7526    0.0000 N   0  0
    1.1871   -4.2825    0.0000 C   0  0
    2.9081   -6.2294    0.0000 C   0  0
    3.2060   -7.6995    0.0000 O   0  0
    4.0312   -5.2378    0.0000 C   0  0
    5.4984   -5.5497    0.0000 C   0  0
    6.1085   -6.9200    0.0000 C   0  0
    6.2484   -4.2507    0.0000 C   0  0
    5.2447   -3.1359    0.0000 C   0  0
    3.8933   -3.7570    0.0000 N   0  0
    2.5951   -3.0039    0.0000 N   0  0
    2.5973   -1.5031    0.0000 C   0  0
    3.8976   -0.7537    0.0000 C   0  0
    3.9019    0.7463    0.0000 C   0  0
    5.2031    1.4926    0.0000 C   0  0
    6.4999    0.7389    0.0000 C   0  0
    6.4957   -0.7611    0.0000 C   0  0
    5.1945   -1.5074    0.0000 C   0  0
    7.7410   -4.0938    0.0000 C   0  0
    8.7076   -5.2343    0.0000 C   0  0
   10.1833   -4.9657    0.0000 C   0  0
   11.1538   -6.1095    0.0000 F   0  0
   10.6886   -3.5534    0.0000 C   0  0
    9.7181   -2.4097    0.0000 C   0  0
   10.2234   -0.9973    0.0000 F   0  0
    8.2423   -2.6783    0.0000 C   0  0
  1  2  1  0
  2  3  1  0
  2  4  1  0
  4  5  2  0
  4  6  1  0
  6  7  2  0
  7  8  1  0
  7  9  1  0
  9 10  2  0
 10 11  1  0
 11  6  1  0
 11 12  1  0
 12 13  2  0
 13 14  1  0
 14 15  2  0
 15 16  1  0
 16 17  2  0
 17 18  1  0
 18 19  2  0
 19 14  1  0
  9 20  1  0
 20 21  2  0
 21 22  1  0
 22 23  1  0
 22 24  2  0
 24 25  1  0
 25 26  1  0
 25 27  2  0
 27 20  1  0
M  END
> <Score_ID>
J72

> <ID_class>
J

> <No>
1724

> <Canonical_Smiles>
CN(C)C(=O)c1c(C)c(cn1\N=C/c2ccccc2)c3cc(F)cc(F)c3

$$$$

  SciTegic12192217542D

 27 29  0  0  0  0            999 V2000
    2.6015   -1.5060    0.0000 C   0  0
    2.5973   -3.0060    0.0000 C   0  0
    3.8942   -3.7597    0.0000 C   0  0
    3.8899   -5.2597    0.0000 C   0  0
    2.5887   -6.0060    0.0000 C   0  0
    1.2918   -5.2523    0.0000 C   0  0
    1.2961   -3.7523    0.0000 C   0  0
   -0.0031   -3.0008    0.0000 C   0  0
   -1.3039   -3.7494    0.0000 N   0  0
   -1.4469   -5.2298    0.0000 C   0  0
   -0.3297   -6.2307    0.0000 C   0  0
   -2.9152   -5.5365    0.0000 C   0  0
   -3.6607   -4.2349    0.0000 C   0  0
   -2.6531   -3.1237    0.0000 C   0  0
   -2.9513   -1.6528    0.0000 C   0  0
   -4.4098   -1.2947    0.0000 C   0  0
   -4.8237    0.1470    0.0000 C   0  0
   -3.7820    1.2263    0.0000 C   0  0
   -2.3264    0.8638    0.0000 C   0  0
   -1.9126   -0.5780    0.0000 C   0  0
   -0.4572   -0.9409    0.0000 F   0  0
   -3.5322   -6.9018    0.0000 C   0  0
   -5.0247   -7.0513    0.0000 O   0  0
   -2.6569   -8.1200    0.0000 N   0  0
    5.1860   -6.0165    0.0000 N   0  3
    5.1795   -7.5164    0.0000 O   0  0
    6.4884   -5.2724    0.0000 O   0  5
  1  2  1  0
  2  3  2  0
  3  4  1  0
  4  5  2  0
  5  6  1  0
  6  7  2  0
  7  2  1  0
  7  8  1  0
  8  9  1  0
  9 10  1  0
 10 11  1  0
 10 12  2  0
 12 13  1  0
 13 14  2  0
 14  9  1  0
 14 15  1  0
 15 16  2  0
 16 17  1  0
 17 18  2  0
 18 19  1  0
 19 20  2  0
 20 15  1  0
 20 21  1  0
 12 22  1  0
 22 23  2  0
 22 24  1  0
  4 25  1  0
 25 26  2  0
 25 27  1  0
M  CHG  2  25   1  27  -1
M  END
> <Score_ID>
J73

> <ID_class>
J

> <No>
1725

> <Canonical_Smiles>
Cc1cc(ccc1Cn2c(C)c(cc2c3ccccc3F)C(=O)N)[N+](=O)[O-]

$$$$

  SciTegic12192217542D

 26 28  0  0  1  0            999 V2000
    6.4451   -1.8434    0.0000 C   0  0
    4.9531   -1.9978    0.0000 C   0  0
    4.2010   -3.2956    0.0000 N   0  0
    2.7343   -2.9815    0.0000 C   0  0
    2.5987   -1.5004    0.0000 C   0  0
    1.2990   -0.7500    0.0000 C   0  0
    1.2990    0.7500    0.0000 C   0  0
    0.0000    1.5000    0.0000 C   0  0
   -1.2990    0.7500    0.0000 C   0  0
   -1.2990   -0.7500    0.0000 C   0  0
   -2.5988   -1.5004    0.0000 C   0  0
   -3.8978   -2.2504    0.0000 N   0  0
    0.0000   -1.5000    0.0000 C   0  0
    0.0000   -3.0000    0.0000 N   0  0
    3.9511   -0.8815    0.0000 C   0  0
    4.2557    0.5854    0.0000 C   0  0  2  0  0  0
    5.6802    1.0553    0.0000 N   0  0
    3.1362    1.5850    0.0000 C   0  0
    3.4412    3.0545    0.0000 S   0  0
    2.3217    4.0541    0.0000 C   0  0
    2.6244    5.5233    0.0000 C   0  0
    1.5035    6.5201    0.0000 C   0  0
    0.0798    6.0477    0.0000 C   0  0
   -1.0411    7.0445    0.0000 F   0  0
   -0.2230    4.5786    0.0000 C   0  0
    0.8979    3.5818    0.0000 C   0  0
  1  2  1  0
  2  3  1  0
  3  4  1  0
  4  5  2  0
  5  6  1  0
  6  7  2  0
  7  8  1  0
  8  9  2  0
  9 10  1  0
 10 11  1  0
 11 12  3  0
 10 13  2  0
 13  6  1  0
 13 14  1  0
  5 15  1  0
 15  2  2  0
 15 16  1  0
 16 17  1  1
 16 18  1  0
 18 19  1  0
 19 20  1  0
 20 21  2  0
 21 22  1  0
 22 23  2  0
 23 24  1  0
 23 25  1  0
 25 26  2  0
 26 20  1  0
M  END
> <Score_ID>
J74

> <ID_class>
J

> <No>
1726

> <Canonical_Smiles>
Cc1[nH]cc(c2cccc(C#N)c2N)c1[C@H](N)CSc3ccc(F)cc3

$$$$

  SciTegic12192217542D

 27 29  0  0  0  0            999 V2000
    4.6063   -4.2098    0.0000 C   0  0
    4.2010   -3.2956    0.0000 C   0  0
    2.7343   -2.9815    0.0000 C   0  0
    2.5987   -1.5004    0.0000 C   0  0
    1.2990   -0.7500    0.0000 C   0  0
    1.2990    0.7500    0.0000 C   0  0
    0.0000    1.5000    0.0000 C   0  0
   -1.2990    0.7500    0.0000 C   0  0
   -2.5981    1.5000    0.0000 F   0  0
   -1.2990   -0.7500    0.0000 C   0  0
    0.0000   -1.5000    0.0000 C   0  0
    3.9511   -0.8815    0.0000 C   0  0
    4.2567    0.5878    0.0000 C   0  0
    3.2235    1.6679    0.0000 C   0  0
    3.6446    3.1076    0.0000 C   0  0
    5.1019    3.4627    0.0000 C   0  0
    6.1382    2.3782    0.0000 C   0  0
    5.7171    0.9385    0.0000 C   0  0
    5.5263    4.9023    0.0000 N   0  3
    6.9841    5.2554    0.0000 O   0  0
    4.4919    5.9887    0.0000 O   0  5
    4.9531   -1.9978    0.0000 N   0  0
    6.4437   -1.8466    0.0000 N   0  0
    7.3222   -3.0635    0.0000 C   0  0
    6.7084   -4.4331    0.0000 C   0  0
    7.5864   -5.6493    0.0000 O   0  0
    5.7136   -4.5349    0.0000 N   0  0
  1  2  1  0
  2  3  2  0
  3  4  1  0
  4  5  1  0
  5  6  2  0
  6  7  1  0
  7  8  2  0
  8  9  1  0
  8 10  1  0
 10 11  2  0
 11  5  1  0
  4 12  2  0
 12 13  1  0
 13 14  2  0
 14 15  1  0
 15 16  2  0
 16 17  1  0
 17 18  2  0
 18 13  1  0
 16 19  1  0
 19 20  2  0
 19 21  1  0
 12 22  1  0
 22  2  1  0
 22 23  1  0
 23 24  2  0
 24 25  1  0
 25 26  2  0
 25 27  1  0
M  CHG  2  19   1  21  -1
M  END
> <Score_ID>
J75

> <ID_class>
J

> <No>
1727

> <Canonical_Smiles>
Cc1cc(c2ccc(F)cc2)c(c3ccc(cc3)[N+](=O)[O-])n1\N=C/C(=O)N

$$$$

  SciTegic12192217542D

 26 28  0  0  0  0            999 V2000
    6.3215   -4.9831    0.0000 C   0  0
    5.7090   -6.3524    0.0000 N   0  0
    4.2161   -6.5062    0.0000 C   0  0
    3.3372   -5.2929    0.0000 C   0  0
    1.8372   -5.2877    0.0000 C   0  0
    0.9513   -6.4982    0.0000 C   0  0
    1.3786   -3.8595    0.0000 N   0  0
    2.5951   -3.0039    0.0000 C   0  0
    2.5973   -1.5031    0.0000 S   0  0
    1.2990   -0.7500    0.0000 C   0  0
    1.2990    0.7500    0.0000 C   0  0
    0.0000    1.5000    0.0000 C   0  0
   -1.2990    0.7500    0.0000 C   0  0
   -1.2990   -0.7500    0.0000 C   0  0
    0.0000   -1.5000    0.0000 C   0  0
   -2.5988    1.5004    0.0000 C   0  0
   -3.8978    2.2504    0.0000 N   0  0
    3.8056   -3.8679    0.0000 C   0  0
    5.2311   -3.4009    0.0000 C   0  0
    6.5895   -7.5678    0.0000 C   0  0
    8.0819   -7.4162    0.0000 C   0  0
    8.9594   -8.6328    0.0000 C   0  0
    8.3446  -10.0010    0.0000 C   0  0
    9.2221  -11.2175    0.0000 F   0  0
    6.8523  -10.1527    0.0000 C   0  0
    5.9747   -8.9361    0.0000 C   0  0
  1  2  1  0
  2  3  1  0
  3  4  1  0
  4  5  2  0
  5  6  1  0
  5  7  1  0
  7  8  1  0
  8  9  1  0
  9 10  1  0
 10 11  2  0
 11 12  1  0
 12 13  2  0
 13 14  1  0
 14 15  2  0
 15 10  1  0
 13 16  1  0
 16 17  3  0
  8 18  2  0
 18  4  1  0
 18 19  1  0
  2 20  1  0
 20 21  2  0
 21 22  1  0
 22 23  2  0
 23 24  1  0
 23 25  1  0
 25 26  2  0
 26 20  1  0
M  END
> <Score_ID>
J76

> <ID_class>
J

> <No>
1728

> <Canonical_Smiles>
CN(Cc1c(C)[nH]c(Sc2ccc(cc2)C#N)c1C)c3ccc(F)cc3

$$$$

  SciTegic12192217542D

 26 28  0  0  0  0            999 V2000
    2.5981   -1.5000    0.0000 C   0  0
    1.2990   -0.7500    0.0000 C   0  0
    1.2990    0.7500    0.0000 C   0  0
    0.0000    1.5000    0.0000 C   0  0
    0.0000    3.0000    0.0000 C   0  0
   -1.2990    0.7500    0.0000 C   0  0
   -1.2990   -0.7500    0.0000 C   0  0
    0.0000   -1.5000    0.0000 C   0  0
   -2.5987   -1.5004    0.0000 N   0  0
   -3.9511   -0.8815    0.0000 C   0  0
   -4.2566    0.5871    0.0000 C   0  0
   -4.9530   -1.9978    0.0000 C   0  0
   -4.2010   -3.2957    0.0000 C   0  0
   -4.8092   -4.6676    0.0000 C   0  0
   -6.2798   -4.9368    0.0000 C   0  0
   -6.7828   -6.3500    0.0000 C   0  0
   -5.8105   -7.4922    0.0000 C   0  0
   -4.3352   -7.2212    0.0000 C   0  0
   -3.8322   -5.8081    0.0000 C   0  0
   -6.3109   -8.9071    0.0000 N   0  3
   -5.3370  -10.0479    0.0000 O   0  0
   -7.7858   -9.1806    0.0000 O   0  5
   -2.7343   -2.9815    0.0000 C   0  0
   -1.6096   -3.9713    0.0000 C   0  0
   -0.1881   -3.4925    0.0000 S   0  0
   -1.9052   -5.4419    0.0000 N   0  0
  1  2  1  0
  2  3  2  0
  3  4  1  0
  4  5  1  0
  4  6  2  0
  6  7  1  0
  7  8  2  0
  8  2  1  0
  7  9  1  0
  9 10  1  0
 10 11  1  0
 10 12  2  0
 12 13  1  0
 13 14  1  0
 14 15  2  0
 15 16  1  0
 16 17  2  0
 17 18  1  0
 18 19  2  0
 19 14  1  0
 17 20  1  0
 20 21  2  0
 20 22  1  0
 13 23  2  0
 23  9  1  0
 23 24  1  0
 24 25  2  0
 24 26  1  0
M  CHG  2  20   1  22  -1
M  END
> <Score_ID>
J77

> <ID_class>
J

> <No>
1729

> <Canonical_Smiles>
Cc1cc(C)cc(c1)n2c(C)cc(c3ccc(cc3)[N+](=O)[O-])c2C(=S)N

$$$$

  SciTegic12192217542D

 27 30  0  0  1  0            999 V2000
    1.2443   -5.8182    0.0000 C   0  0
   -0.2234   -5.5086    0.0000 C   0  0  1  0  0  0
   -0.6890   -4.0818    0.0000 C   0  0
    0.3114   -2.9665    0.0000 N   0  0
    1.8032   -3.1233    0.0000 C   0  0
    2.5532   -4.4223    0.0000 C   0  0
    2.4133   -1.7530    0.0000 C   0  0
    1.2990   -0.7500    0.0000 C   0  0
    1.2990    0.7500    0.0000 C   0  0
    0.0000    1.5000    0.0000 N   0  0
   -1.2990    0.7500    0.0000 C   0  0
   -1.2990   -0.7500    0.0000 C   0  0
    0.0000   -1.5000    0.0000 C   0  0
    3.8813   -1.4408    0.0000 C   0  0
    4.9619   -2.4739    0.0000 C   0  0
    6.4015   -2.0524    0.0000 C   0  0
    6.7561   -0.5949    0.0000 C   0  0
    8.1957   -0.1733    0.0000 F   0  0
    5.6713    0.4410    0.0000 C   0  0
    4.2318    0.0194    0.0000 C   0  0
   -1.2256   -6.6258    0.0000 C   0  0
   -2.6939   -6.3188    0.0000 C   0  0
   -3.6940   -7.4367    0.0000 C   0  0
   -3.2258   -8.8618    0.0000 C   0  0
   -1.7576   -9.1689    0.0000 C   0  0
   -1.2895  -10.5940    0.0000 N   0  0
   -0.7575   -8.0510    0.0000 C   0  0
  2  1  1  6
  2  3  1  0
  3  4  1  0
  4  5  1  0
  5  6  1  0
  5  7  2  0
  7  8  1  0
  8  9  1  0
  9 10  1  0
 10 11  1  0
 11 12  1  0
 12 13  1  0
 13  4  1  0
 13  8  2  0
  7 14  1  0
 14 15  2  0
 15 16  1  0
 16 17  2  0
 17 18  1  0
 17 19  1  0
 19 20  2  0
 20 14  1  0
  2 21  1  0
 21 22  2  0
 22 23  1  0
 23 24  2  0
 24 25  1  0
 25 26  1  0
 25 27  2  0
 27 21  1  0
M  END
> <Score_ID>
J78

> <ID_class>
J

> <No>
1730

> <Canonical_Smiles>
C[C@@H](Cn1c(C)c(c2CNCCc12)c3ccc(F)cc3)c4cccc(N)c4

$$$$

  SciTegic12192217542D

 25 27  0  0  0  0            999 V2000
    1.6317   -2.2458    0.0000 C   0  0
    0.7500   -1.0323    0.0000 C   0  0
    1.2135    0.3943    0.0000 S   0  0
    0.0000    1.2760    0.0000 C   0  0
   -0.4623    2.7009    0.0000 C   0  0
    0.4164    3.9144    0.0000 C   0  0
   -0.1953    5.2849    0.0000 C   0  0
   -1.6873    5.4398    0.0000 O   0  0
    0.6849    6.5005    0.0000 N   0  0
    0.0732    7.8709    0.0000 C   0  0
    0.9512    9.0872    0.0000 C   0  0
    0.3370   10.4557    0.0000 C   0  0
   -1.1553   10.6080    0.0000 C   0  0
   -1.7695   11.9765    0.0000 F   0  0
   -2.0333    9.3919    0.0000 C   0  0
   -3.5256    9.5442    0.0000 F   0  0
   -1.4191    8.0234    0.0000 C   0  0
   -1.9623    2.7008    0.0000 N   0  0
   -2.4258    1.2743    0.0000 C   0  0
   -3.8515    0.8135    0.0000 C   0  0
   -4.9653    1.8183    0.0000 O   0  0
   -4.1652   -0.6533    0.0000 N   0  0
   -1.2135    0.3943    0.0000 N   0  0
   -0.7500   -1.0323    0.0000 C   0  0
   -1.6317   -2.2458    0.0000 C   0  0
  1  2  1  0
  2  3  1  0
  3  4  1  0
  4  5  2  0
  5  6  1  0
  6  7  1  0
  7  8  2  0
  7  9  1  0
  9 10  1  0
 10 11  2  0
 11 12  1  0
 12 13  2  0
 13 14  1  0
 13 15  1  0
 15 16  1  0
 15 17  2  0
 17 10  1  0
  5 18  1  0
 18 19  2  0
 19 20  1  0
 20 21  2  0
 20 22  1  0
 19 23  1  0
 23  4  1  0
 23 24  1  0
 24  2  2  0
 24 25  1  0
M  END
> <Score_ID>
J79

> <ID_class>
J

> <No>
1731

> <Canonical_Smiles>
Cc1sc2c(CC(=O)Nc3ccc(F)c(F)c3)nc(C(=O)N)n2c1C

$$$$

  SciTegic12192217542D

 26 28  0  0  0  0            999 V2000
    2.5951   -3.0031    0.0000 C   0  0
    2.5973   -1.5031    0.0000 N   0  0
    3.8976   -0.7553    0.0000 C   0  0
    1.2990   -0.7500    0.0000 C   0  0
    1.2990    0.7500    0.0000 C   0  0
    0.0000    1.5000    0.0000 C   0  0
   -1.2990    0.7500    0.0000 C   0  0
   -2.5987    1.5004    0.0000 C   0  0
   -3.9492    0.8772    0.0000 C   0  0
   -4.9546    1.9903    0.0000 C   0  0
   -4.2067    3.2905    0.0000 C   0  0
   -4.8190    4.6599    0.0000 C   0  0
   -2.7390    2.9810    0.0000 N   0  0
   -1.6175    3.9744    0.0000 N   0  0
   -0.1936    3.4998    0.0000 C   0  0
    0.9299    4.4949    0.0000 C   0  0
    2.3788    4.1595    0.0000 O   0  0
    3.1368    5.4539    0.0000 C   0  0
    2.1400    6.5748    0.0000 C   0  0
    0.7659    5.9731    0.0000 C   0  0
   -1.2990   -0.7500    0.0000 C   0  0
    0.0000   -1.5000    0.0000 C   0  0
   -2.5988   -1.5004    0.0000 C   0  0
   -3.8983   -0.7513    0.0000 F   0  0
   -2.5983   -3.0004    0.0000 F   0  0
   -3.8975   -2.2510    0.0000 F   0  0
  1  2  1  0
  2  3  1  0
  2  4  1  0
  4  5  2  0
  5  6  1  0
  6  7  2  0
  7  8  1  0
  8  9  2  0
  9 10  1  0
 10 11  2  0
 11 12  1  0
 11 13  1  0
 13  8  1  0
 13 14  1  0
 14 15  1  0
 15 16  1  0
 16 17  1  0
 17 18  1  0
 18 19  2  0
 19 20  1  0
 20 16  2  0
  7 21  1  0
 21 22  2  0
 22  4  1  0
 21 23  1  0
 23 24  1  0
 23 25  1  0
 23 26  1  0
M  END
> <Score_ID>
J80

> <ID_class>
J

> <No>
1732

> <Canonical_Smiles>
CN(C)c1ccc(c2ccc(C)n2NCc3occc3)c(c1)C(F)(F)F

$$$$

  SciTegic12192217542D

 27 30  0  0  0  0            999 V2000
    5.5076    1.7335    0.0000 C   0  0
    6.6317    0.7404    0.0000 C   0  0
    8.0978    1.0574    0.0000 C   0  0
    8.7032    2.4298    0.0000 N   0  0
    8.8523   -0.2391    0.0000 N   0  0
    7.8525   -1.3573    0.0000 C   0  0
    8.1609   -2.8260    0.0000 C   0  0
    7.1297   -3.9080    0.0000 C   0  0
    7.5535   -5.3469    0.0000 C   0  0
    9.0116   -5.6993    0.0000 C   0  0
    9.4354   -7.1382    0.0000 F   0  0
   10.0457   -4.6128    0.0000 C   0  0
    9.6219   -3.1739    0.0000 C   0  0
    6.4990   -0.7409    0.0000 C   0  0
    5.2003   -1.4932    0.0000 C   0  0
    5.2029   -2.9932    0.0000 O   0  0
    3.8990   -0.7455    0.0000 N   0  0
    2.6003   -1.4977    0.0000 C   0  0
    1.2990   -0.7500    0.0000 C   0  0
    1.2990    0.7500    0.0000 C   0  0
    0.0000    1.5000    0.0000 C   0  0
   -1.2990    0.7500    0.0000 C   0  0
   -1.2990   -0.7500    0.0000 C   0  0
   -2.4133   -1.7530    0.0000 C   0  0
   -1.8032   -3.1233    0.0000 C   0  0
   -0.3114   -2.9665    0.0000 N   0  0
    0.0000   -1.5000    0.0000 C   0  0
  1  2  1  0
  2  3  2  0
  3  4  1  0
  3  5  1  0
  5  6  1  0
  6  7  1  0
  7  8  2  0
  8  9  1  0
  9 10  2  0
 10 11  1  0
 10 12  1  0
 12 13  2  0
 13  7  1  0
  6 14  2  0
 14  2  1  0
 14 15  1  0
 15 16  2  0
 15 17  1  0
 17 18  1  0
 18 19  1  0
 19 20  2  0
 20 21  1  0
 21 22  2  0
 22 23  1  0
 23 24  1  0
 24 25  2  0
 25 26  1  0
 26 27  1  0
 27 19  1  0
 27 23  2  0
M  END
> <Score_ID>
J81

> <ID_class>
J

> <No>
1733

> <Canonical_Smiles>
Cc1c(N)[nH]c(c2ccc(F)cc2)c1C(=O)NCc3cccc4cc[nH]c34

$$$$

  SciTegic12192217542D

 25 27  0  0  0  0            999 V2000
    6.4451   -1.8434    0.0000 C   0  0
    4.9531   -1.9978    0.0000 C   0  0
    3.9511   -0.8815    0.0000 C   0  0
    4.2566    0.5871    0.0000 N   0  0
    2.5987   -1.5004    0.0000 N   0  0
    1.2990   -0.7500    0.0000 C   0  0
    1.2990    0.7500    0.0000 C   0  0
    0.0000    1.5000    0.0000 C   0  0
   -1.2990    0.7500    0.0000 C   0  0
   -1.2990   -0.7500    0.0000 C   0  0
    0.0000   -1.5000    0.0000 C   0  0
    0.0000   -3.0000    0.0000 Cl  0  0
    2.7343   -2.9815    0.0000 C   0  0
    1.6137   -3.9759    0.0000 C   0  0
    0.1907   -3.5017    0.0000 O   0  0
    1.9143   -5.4464    0.0000 N   0  0
    0.7923   -6.4420    0.0000 N   0  0
    4.2010   -3.2956    0.0000 C   0  0
    4.8092   -4.6676    0.0000 C   0  0
    4.0212   -5.9381    0.0000 C   0  0
    4.7306   -7.2598    0.0000 C   0  0
    6.2299   -7.3062    0.0000 C   0  0
    6.9393   -8.6279    0.0000 F   0  0
    7.0198   -6.0311    0.0000 C   0  0
    6.3104   -4.7094    0.0000 C   0  0
  1  2  1  0
  2  3  2  0
  3  4  1  0
  3  5  1  0
  5  6  1  0
  6  7  2  0
  7  8  1  0
  8  9  2  0
  9 10  1  0
 10 11  2  0
 11  6  1  0
 11 12  1  0
  5 13  1  0
 13 14  1  0
 14 15  2  0
 14 16  1  0
 16 17  1  0
 13 18  2  0
 18  2  1  0
 18 19  1  0
 19 20  2  0
 20 21  1  0
 21 22  2  0
 22 23  1  0
 22 24  1  0
 24 25  2  0
 25 19  1  0
M  END
> <Score_ID>
J82

> <ID_class>
J

> <No>
1734

> <Canonical_Smiles>
Cc1c(N)n(c2ccccc2Cl)c(C(=O)NN)c1c3ccc(F)cc3

$$$$

  SciTegic12192217542D

 27 30  0  0  0  0            999 V2000
    2.5981   -1.5000    0.0000 C   0  0
    1.2990   -0.7500    0.0000 C   0  0
    1.2990    0.7500    0.0000 C   0  0
    0.0000    1.5000    0.0000 C   0  0
   -1.2990    0.7500    0.0000 C   0  0
   -1.2990   -0.7500    0.0000 C   0  0
    0.0000   -1.5000    0.0000 C   0  0
   -0.0031   -3.0008    0.0000 C   0  0
   -1.3039   -3.7494    0.0000 N   0  0
   -1.4469   -5.2298    0.0000 C   0  0
   -0.3297   -6.2307    0.0000 C   0  0
   -2.9152   -5.5365    0.0000 C   0  0
   -3.6607   -4.2349    0.0000 C   0  0
   -2.6531   -3.1237    0.0000 C   0  0
   -2.9512   -1.6536    0.0000 N   0  0
   -5.1527   -4.0728    0.0000 C   0  0
   -5.7687   -2.7181    0.0000 N   0  0
   -7.2565   -2.9091    0.0000 N   0  0
   -7.5346   -4.3831    0.0000 C   0  0
   -8.8912   -5.0248    0.0000 C   0  0
  -10.1806   -4.2682    0.0000 C   0  0
  -11.4845   -5.0098    0.0000 C   0  0
  -11.4942   -6.5097    0.0000 C   0  0
  -10.2000   -7.2681    0.0000 C   0  0
   -8.8962   -6.5265    0.0000 C   0  0
   -6.2187   -5.1031    0.0000 N   0  0
   -6.0185   -6.5897    0.0000 C   0  0
  1  2  1  0
  2  3  2  0
  3  4  1  0
  4  5  2  0
  5  6  1  0
  6  7  2  0
  7  2  1  0
  7  8  1  0
  8  9  1  0
  9 10  1  0
 10 11  1  0
 10 12  2  0
 12 13  1  0
 13 14  2  0
 14  9  1  0
 14 15  1  0
 13 16  1  0
 16 17  2  0
 17 18  1  0
 18 19  2  0
 19 20  1  0
 20 21  2  0
 21 22  1  0
 22 23  2  0
 23 24  1  0
 24 25  2  0
 25 20  1  0
 19 26  1  0
 26 16  1  0
 26 27  1  0
M  END
> <Score_ID>
J83

> <ID_class>
J

> <No>
1735

> <Canonical_Smiles>
Cc1ccccc1Cn2c(C)cc(c2N)c3nnc(c4ccccc4)n3C

$$$$

  SciTegic12192217542D

 26 28  0  0  0  0            999 V2000
   -2.6144    7.4986    0.0000 C   0  0
   -2.6101    5.9986    0.0000 C   0  0
   -1.3089    5.2523    0.0000 C   0  0
   -1.3046    3.7523    0.0000 C   0  0
   -2.6015    2.9986    0.0000 C   0  0
   -2.6003    1.4977    0.0000 C   0  0
   -3.8990    0.7455    0.0000 N   0  0
   -5.2526    1.3618    0.0000 C   0  0
   -6.2524    0.2436    0.0000 N   0  0
   -5.4979   -1.0529    0.0000 C   0  0
   -6.1032   -2.4253    0.0000 C   0  0
   -4.0317   -0.7359    0.0000 C   0  0
   -3.3109   -2.0493    0.0000 C   0  0
   -1.8105   -2.0827    0.0000 N   0  0
   -1.0305   -0.8005    0.0000 N   0  0
    0.4529   -0.6935    0.0000 C   0  0
    0.7953    0.7669    0.0000 C   0  0
   -0.4878    1.5438    0.0000 C   0  0
   -1.6232    0.5636    0.0000 C   0  0
   -4.0893   -3.3315    0.0000 N   0  0
   -5.5610    2.8279    0.0000 C   0  0
   -6.9863    3.2954    0.0000 O   0  0
   -4.4438    3.8288    0.0000 N   0  0
   -3.9027    3.7449    0.0000 C   0  0
   -3.9070    5.2449    0.0000 C   0  0
   -5.2082    5.9911    0.0000 F   0  0
  1  2  1  0
  2  3  2  0
  3  4  1  0
  4  5  2  0
  5  6  1  0
  6  7  1  0
  7  8  1  0
  8  9  2  0
  9 10  1  0
 10 11  1  0
 10 12  2  0
 12  7  1  0
 12 13  1  0
 13 14  2  0
 14 15  1  0
 15 16  1  0
 16 17  1  0
 17 18  1  0
 18 19  1  0
 19 15  1  0
 13 20  1  0
  8 21  1  0
 21 22  2  0
 21 23  1  0
  5 24  1  0
 24 25  2  0
 25  2  1  0
 25 26  1  0
M  END
> <Score_ID>
J84

> <ID_class>
J

> <No>
1736

> <Canonical_Smiles>
Cc1ccc(Cn2c(nc(C)c2\C(=N/N3CCCC3)\N)C(=O)N)cc1F

$$$$

  SciTegic12192217542D

 25 27  0  0  0  0            999 V2000
    4.5246   -7.2506    0.0000 C   0  0
    3.9196   -5.8781    0.0000 N   0  0
    4.8054   -4.6666    0.0000 C   0  0
    6.2951   -4.8267    0.0000 C   0  0
    7.0393   -6.1291    0.0000 N   0  0
    8.4917   -5.8091    0.0000 N   0  0
    8.6713   -4.3327    0.0000 C   0  0
    9.9781   -3.5963    0.0000 C   0  0
    7.3037   -3.7165    0.0000 C   0  0
    6.9982   -2.2472    0.0000 C   0  0
    7.9207   -1.0866    0.0000 C   0  0
    9.4196   -1.1422    0.0000 C   0  0
    7.0769    0.1535    0.0000 C   0  0
    5.6367   -0.2657    0.0000 S   0  0
    5.5903   -1.7650    0.0000 C   0  0
    4.3577   -2.6165    0.0000 N   0  3
    3.0019   -1.9748    0.0000 O   0  0
    4.4794   -4.1115    0.0000 O   0  5
    9.6009   -6.8201    0.0000 C   0  0
   11.0302   -6.3652    0.0000 C   0  0
   12.1389   -7.3756    0.0000 C   0  0
   11.8181   -8.8409    0.0000 C   0  0
   12.9268   -9.8513    0.0000 F   0  0
   10.3888   -9.2958    0.0000 C   0  0
    9.2801   -8.2854    0.0000 C   0  0
  1  2  1  0
  2  3  2  0
  3  4  1  0
  4  5  2  0
  5  6  1  0
  6  7  1  0
  7  8  1  0
  7  9  2  0
  9  4  1  0
  9 10  1  0
 10 11  1  0
 11 12  1  0
 11 13  2  0
 13 14  1  0
 14 15  1  0
 15 10  2  0
 15 16  1  0
 16 17  2  0
 16 18  1  0
  6 19  1  0
 19 20  2  0
 20 21  1  0
 21 22  2  0
 22 23  1  0
 22 24  1  0
 24 25  2  0
 25 19  1  0
M  CHG  2  16   1  18  -1
M  END
> <Score_ID>
J85

> <ID_class>
J

> <No>
1737

> <Canonical_Smiles>
C\N=C/c1nn(c(C)c1c2c(C)csc2[N+](=O)[O-])c3ccc(F)cc3

$$$$

  SciTegic12192217542D

 25 27  0  0  0  0            999 V2000
    0.9513   -6.4982    0.0000 C   0  0
    1.8372   -5.2877    0.0000 C   0  0
    3.3372   -5.2929    0.0000 C   0  0
    3.8056   -3.8679    0.0000 N   0  0
    5.2311   -3.4009    0.0000 C   0  0
    2.5951   -3.0039    0.0000 C   0  0
    2.5973   -1.5031    0.0000 C   0  0
    3.8976   -0.7537    0.0000 C   0  0
    3.9019    0.7463    0.0000 C   0  0
    5.2031    1.4926    0.0000 C   0  0
    6.4999    0.7389    0.0000 C   0  0
    7.8011    1.4852    0.0000 Cl  0  0
    6.4957   -0.7611    0.0000 C   0  0
    5.1945   -1.5074    0.0000 C   0  0
    1.3786   -3.8595    0.0000 C   0  0
   -0.0443   -3.3823    0.0000 C   0  0
   -1.0836   -4.4664    0.0000 C   0  0
   -2.5392   -4.1039    0.0000 C   0  0
   -2.9530   -2.6621    0.0000 C   0  0
   -1.9113   -1.5828    0.0000 C   0  0
   -0.4558   -1.9453    0.0000 C   0  0
    0.5863   -0.8664    0.0000 O   0  0
   -4.4086   -2.2964    0.0000 N   0  3
   -4.8204   -0.8540    0.0000 O   0  0
   -5.4522   -3.3739    0.0000 O   0  5
  1  2  1  0
  2  3  2  0
  3  4  1  0
  4  5  1  0
  4  6  1  0
  6  7  1  0
  7  8  1  0
  8  9  2  0
  9 10  1  0
 10 11  2  0
 11 12  1  0
 11 13  1  0
 13 14  2  0
 14  8  1  0
  6 15  2  0
 15  2  1  0
 15 16  1  0
 16 17  2  0
 17 18  1  0
 18 19  2  0
 19 20  1  0
 20 21  2  0
 21 16  1  0
 21 22  1  0
 19 23  1  0
 23 24  2  0
 23 25  1  0
M  CHG  2  23   1  25  -1
M  END
> <Score_ID>
J86

> <ID_class>
J

> <No>
1738

> <Canonical_Smiles>
Cc1cn(C)c(Cc2ccc(Cl)cc2)c1c3ccc(cc3O)[N+](=O)[O-]

$$$$

  SciTegic12192217542D

 25 27  0  0  0  0            999 V2000
    3.8805   -1.4410    0.0000 C   0  0
    2.4133   -1.7530    0.0000 C   0  0
    1.2990   -0.7500    0.0000 C   0  0
    1.2990    0.7500    0.0000 C   0  0
    0.0000    1.5000    0.0000 C   0  0
   -1.2990    0.7500    0.0000 C   0  0
   -1.2990   -0.7500    0.0000 C   0  0
    0.0000   -1.5000    0.0000 C   0  0
    0.3114   -2.9665    0.0000 C   0  0
   -0.6928   -4.0817    0.0000 C   0  0
   -0.1183   -5.4691    0.0000 C   0  0
   -1.0353   -6.6562    0.0000 C   0  0
   -2.5218   -6.4556    0.0000 C   0  0
   -3.0913   -5.0679    0.0000 C   0  0
   -2.1743   -3.8808    0.0000 C   0  0
   -2.7434   -2.4930    0.0000 F   0  0
   -3.4418   -7.6414    0.0000 C   0  0
   -4.9280   -7.4387    0.0000 S   0  0
   -2.8747   -9.0301    0.0000 N   0  0
    1.8032   -3.1233    0.0000 N   0  0
    2.5551   -4.4192    0.0000 N   0  0
    4.0559   -4.4171    0.0000 C   0  0
    4.8090   -5.7153    0.0000 C   0  0
    6.3090   -5.7131    0.0000 O   0  0
    4.0613   -7.0156    0.0000 N   0  0
  1  2  1  0
  2  3  2  0
  3  4  1  0
  4  5  2  0
  5  6  1  0
  6  7  2  0
  7  8  1  0
  8  3  1  0
  8  9  2  0
  9 10  1  0
 10 11  2  0
 11 12  1  0
 12 13  2  0
 13 14  1  0
 14 15  2  0
 15 10  1  0
 15 16  1  0
 13 17  1  0
 17 18  2  0
 17 19  1  0
  9 20  1  0
 20  2  1  0
 20 21  1  0
 21 22  1  0
 22 23  1  0
 23 24  2  0
 23 25  1  0
M  END
> <Score_ID>
J87

> <ID_class>
J

> <No>
1739

> <Canonical_Smiles>
Cc1c2ccccc2c(c3ccc(cc3F)C(=S)N)n1NCC(=O)N

$$$$

  SciTegic12192217542D

 25 27  0  0  0  0            999 V2000
    0.1881   -3.4924    0.0000 C   0  0
    1.6096   -3.9713    0.0000 N   0  0
    1.9053   -5.4418    0.0000 C   0  0
    2.7343   -2.9815    0.0000 N   0  0
    4.2010   -3.2956    0.0000 C   0  0
    4.9531   -1.9978    0.0000 C   0  0
    3.9511   -0.8815    0.0000 C   0  0
    4.2566    0.5871    0.0000 C   0  0
    2.5987   -1.5004    0.0000 C   0  0
    1.2990   -0.7500    0.0000 C   0  0
    1.2990    0.7500    0.0000 C   0  0
    0.0000    1.5000    0.0000 C   0  0
   -1.2990    0.7500    0.0000 C   0  0
   -1.2990   -0.7500    0.0000 C   0  0
    0.0000   -1.5000    0.0000 C   0  0
   -2.5972   -1.5031    0.0000 N   0  3
   -2.5951   -3.0031    0.0000 O   0  0
   -3.8976   -0.7554    0.0000 O   0  5
    4.8092   -4.6676    0.0000 C   0  0
    4.0212   -5.9381    0.0000 C   0  0
    4.7306   -7.2597    0.0000 C   0  0
    6.2299   -7.3062    0.0000 C   0  0
    7.0198   -6.0310    0.0000 C   0  0
    8.5191   -6.0775    0.0000 Cl  0  0
    6.3104   -4.7094    0.0000 C   0  0
  1  2  1  0
  2  3  1  0
  2  4  1  0
  4  5  1  0
  5  6  2  0
  6  7  1  0
  7  8  1  0
  7  9  2  0
  9  4  1  0
  9 10  1  0
 10 11  2  0
 11 12  1  0
 12 13  2  0
 13 14  1  0
 14 15  2  0
 15 10  1  0
 14 16  1  0
 16 17  2  0
 16 18  1  0
  5 19  1  0
 19 20  2  0
 20 21  1  0
 21 22  2  0
 22 23  1  0
 23 24  1  0
 23 25  2  0
 25 19  1  0
M  CHG  2  16   1  18  -1
M  END
> <Score_ID>
J88

> <ID_class>
J

> <No>
1740

> <Canonical_Smiles>
CN(C)n1c(cc(C)c1c2cccc(c2)[N+](=O)[O-])c3cccc(Cl)c3

$$$$

  SciTegic12192217542D

 26 28  0  0  1  0            999 V2000
    5.5107   -8.7634    0.0000 C   0  0
    4.6332   -7.5468    0.0000 C   0  0
    5.1017   -6.1218    0.0000 C   0  0
    6.5271   -5.6548    0.0000 N   0  0
    3.8912   -5.2578    0.0000 C   0  0
    3.8933   -3.7570    0.0000 C   0  0  1  0  0  0
    2.5951   -3.0039    0.0000 N   0  0
    2.5973   -1.5031    0.0000 C   0  0
    1.2990   -0.7500    0.0000 C   0  0
    1.2990    0.7500    0.0000 C   0  0
    0.0000    1.5000    0.0000 C   0  0
   -1.2990    0.7500    0.0000 C   0  0
   -1.2990   -0.7500    0.0000 C   0  0
    0.0000   -1.5000    0.0000 C   0  0
    5.1943   -3.0089    0.0000 C   0  0
    6.4911   -3.7628    0.0000 C   0  0
    7.7925   -3.0169    0.0000 C   0  0
    9.0892   -3.7709    0.0000 F   0  0
    7.7971   -1.5169    0.0000 C   0  0
    6.5004   -0.7628    0.0000 C   0  0
    5.1991   -1.5088    0.0000 C   0  0
    3.9024   -0.7547    0.0000 N   0  0
    2.6747   -6.1134    0.0000 N   0  0
    1.2525   -5.6365    0.0000 N   0  0
    3.1332   -7.5416    0.0000 C   0  0
    2.2473   -8.7521    0.0000 C   0  0
  1  2  1  0
  2  3  1  0
  3  4  1  0
  3  5  2  0
  5  6  1  0
  6  7  1  1
  7  8  1  0
  8  9  1  0
  9 10  2  0
 10 11  1  0
 11 12  2  0
 12 13  1  0
 13 14  2  0
 14  9  1  0
  6 15  1  0
 15 16  2  0
 16 17  1  0
 17 18  1  0
 17 19  2  0
 19 20  1  0
 20 21  2  0
 21 15  1  0
 21 22  1  0
  5 23  1  0
 23 24  1  0
 23 25  1  0
 25  2  2  0
 25 26  1  0
M  END
> <Score_ID>
J89

> <ID_class>
J

> <No>
1741

> <Canonical_Smiles>
Cc1c(N)c([C@@H](NCc2ccccc2)c3cc(F)ccc3N)n(N)c1C

$$$$

  SciTegic12192217542D

 25 27  0  0  0  0            999 V2000
    2.2474   -8.7521    0.0000 C   0  0
    3.1332   -7.5416    0.0000 C   0  0
    2.6747   -6.1134    0.0000 C   0  0
    3.8912   -5.2578    0.0000 C   0  0
    3.8933   -3.7570    0.0000 C   0  0
    5.1937   -3.0093    0.0000 O   0  0
    2.5951   -3.0039    0.0000 N   0  0
    2.5973   -1.5031    0.0000 C   0  0
    1.2990   -0.7500    0.0000 C   0  0
    1.2990    0.7500    0.0000 C   0  0
    0.0000    1.5000    0.0000 C   0  0
   -1.2990    0.7500    0.0000 C   0  0
   -1.2990   -0.7500    0.0000 C   0  0
    0.0000   -1.5000    0.0000 C   0  0
    5.1017   -6.1218    0.0000 N   0  0
    4.6332   -7.5468    0.0000 C   0  0
    5.5071   -8.7638    0.0000 C   0  0
    4.8903  -10.1311    0.0000 S   0  0
    6.5279   -5.6546    0.0000 C   0  0
    6.9493   -4.2205    0.0000 C   0  0
    8.4073   -3.8681    0.0000 C   0  0
    9.4415   -4.9546    0.0000 C   0  0
    9.0177   -6.3934    0.0000 C   0  0
   10.0519   -7.4799    0.0000 F   0  0
    7.5597   -6.7458    0.0000 C   0  0
  1  2  1  0
  2  3  1  0
  3  4  2  0
  4  5  1  0
  5  6  2  0
  5  7  1  0
  7  8  1  0
  8  9  1  0
  9 10  2  0
 10 11  1  0
 11 12  2  0
 12 13  1  0
 13 14  2  0
 14  9  1  0
  4 15  1  0
 15 16  1  0
 16  2  2  0
 16 17  1  0
 17 18  1  0
 15 19  1  0
 19 20  2  0
 20 21  1  0
 21 22  2  0
 22 23  1  0
 23 24  1  0
 23 25  2  0
 25 19  1  0
M  END
> <Score_ID>
J90

> <ID_class>
J

> <No>
1742

> <Canonical_Smiles>
Cc1cc(C(=O)NCc2ccccc2)n(c1CS)c3cccc(F)c3

$$$$

  SciTegic12192217542D

 25 27  0  0  0  0            999 V2000
   -3.9197    8.2438    0.0000 C   0  0
   -2.6175    7.4994    0.0000 S   0  0
   -2.6101    5.9986    0.0000 C   0  0
   -1.3089    5.2523    0.0000 C   0  0
   -1.3046    3.7523    0.0000 C   0  0
   -2.6015    2.9986    0.0000 C   0  0
   -2.6003    1.4977    0.0000 C   0  0
   -3.8990    0.7455    0.0000 N   0  0
   -5.2526    1.3618    0.0000 C   0  0
   -5.5608    2.8298    0.0000 C   0  0
   -6.2524    0.2436    0.0000 C   0  0
   -5.4979   -1.0529    0.0000 C   0  0
   -4.0317   -0.7359    0.0000 C   0  0
   -2.9070   -1.7295    0.0000 C   0  0
   -3.3262   -3.1717    0.0000 C   0  0
   -2.2845   -4.2510    0.0000 C   0  0
   -0.8289   -3.8884    0.0000 C   0  0
   -0.4151   -2.4466    0.0000 C   0  0
   -1.4568   -1.3674    0.0000 C   0  0
   -1.0434    0.0745    0.0000 F   0  0
   -7.7433    0.3919    0.0000 C   0  0
   -8.6190   -0.8260    0.0000 O   0  0
   -8.3605    1.7590    0.0000 N   0  0
   -3.9027    3.7449    0.0000 C   0  0
   -3.9070    5.2449    0.0000 C   0  0
  1  2  1  0
  2  3  1  0
  3  4  2  0
  4  5  1  0
  5  6  2  0
  6  7  1  0
  7  8  1  0
  8  9  1  0
  9 10  1  0
  9 11  2  0
 11 12  1  0
 12 13  2  0
 13  8  1  0
 13 14  1  0
 14 15  2  0
 15 16  1  0
 16 17  2  0
 17 18  1  0
 18 19  2  0
 19 14  1  0
 19 20  1  0
 11 21  1  0
 21 22  2  0
 21 23  1  0
  6 24  1  0
 24 25  2  0
 25  3  1  0
M  END
> <Score_ID>
J91

> <ID_class>
J

> <No>
1743

> <Canonical_Smiles>
CSc1ccc(Cn2c(C)c(cc2c3ccccc3F)C(=O)N)cc1

$$$$

  SciTegic12192217542D

 26 28  0  0  0  0            999 V2000
    2.5981   -1.5000    0.0000 C   0  0
    1.2990   -0.7500    0.0000 C   0  0
    1.2990    0.7500    0.0000 C   0  0
    0.0000    1.5000    0.0000 C   0  0
   -1.2990    0.7500    0.0000 C   0  0
   -2.5987    1.5004    0.0000 C   0  0
   -3.9492    0.8772    0.0000 C   0  0
   -4.9546    1.9903    0.0000 C   0  0
   -6.4441    1.8282    0.0000 C   0  0
   -7.0500    0.4561    0.0000 O   0  0
   -7.3298    3.0388    0.0000 N   0  0
   -4.2067    3.2905    0.0000 C   0  0
   -4.8193    4.6606    0.0000 C   0  0
   -6.2907    4.9251    0.0000 C   0  0
   -6.7982    6.3366    0.0000 C   0  0
   -5.8296    7.4819    0.0000 C   0  0
   -6.3371    8.8934    0.0000 F   0  0
   -4.3534    7.2156    0.0000 C   0  0
   -3.8459    5.8041    0.0000 C   0  0
   -2.7390    2.9810    0.0000 N   0  0
   -1.6199    3.9798    0.0000 N   0  0
   -1.2990   -0.7500    0.0000 C   0  0
    0.0000   -1.5000    0.0000 C   0  0
   -2.5972   -1.5031    0.0000 N   0  3
   -2.5951   -3.0031    0.0000 O   0  0
   -3.8976   -0.7554    0.0000 O   0  5
  1  2  1  0
  2  3  2  0
  3  4  1  0
  4  5  2  0
  5  6  1  0
  6  7  2  0
  7  8  1  0
  8  9  1  0
  9 10  2  0
  9 11  1  0
  8 12  2  0
 12 13  1  0
 13 14  2  0
 14 15  1  0
 15 16  2  0
 16 17  1  0
 16 18  1  0
 18 19  2  0
 19 13  1  0
 12 20  1  0
 20  6  1  0
 20 21  1  0
  5 22  1  0
 22 23  2  0
 23  2  1  0
 22 24  1  0
 24 25  2  0
 24 26  1  0
M  CHG  2  24   1  26  -1
M  END
> <Score_ID>
J92

> <ID_class>
J

> <No>
1744

> <Canonical_Smiles>
Cc1ccc(c2cc(C(=O)N)c(c3ccc(F)cc3)n2N)c(c1)[N+](=O)[O-]

$$$$

  SciTegic12192217542D

 26 28  0  0  0  0            999 V2000
    4.5246   -7.2506    0.0000 C   0  0
    3.9195   -5.8781    0.0000 N   0  0
    4.8054   -4.6666    0.0000 C   0  0
    6.2966   -4.8284    0.0000 O   0  0
    4.2010   -3.2956    0.0000 C   0  0
    4.9531   -1.9978    0.0000 C   0  0
    6.4451   -1.8434    0.0000 C   0  0
    3.9511   -0.8815    0.0000 N   0  0
    4.2506    0.5865    0.0000 N   0  0
    3.1284    1.5817    0.0000 C   0  0
    2.5987   -1.5004    0.0000 C   0  0
    1.2990   -0.7500    0.0000 C   0  0
    1.2990    0.7500    0.0000 C   0  0
    0.0000    1.5000    0.0000 C   0  0
   -1.2990    0.7500    0.0000 C   0  0
   -2.5981    1.5000    0.0000 N   0  0
   -1.2990   -0.7500    0.0000 C   0  0
    0.0000   -1.5000    0.0000 C   0  0
    2.7343   -2.9815    0.0000 C   0  0
    1.6115   -3.9772    0.0000 C   0  0
    0.1606   -3.6178    0.0000 C   0  0
   -0.8791   -4.6991    0.0000 C   0  0
   -0.4625   -6.1401    0.0000 C   0  0
   -1.5022   -7.2213    0.0000 F   0  0
    0.9937   -6.4998    0.0000 C   0  0
    2.0333   -5.4186    0.0000 C   0  0
  1  2  1  0
  2  3  1  0
  3  4  2  0
  3  5  1  0
  5  6  2  0
  6  7  1  0
  6  8  1  0
  8  9  1  0
  9 10  1  0
  8 11  1  0
 11 12  1  0
 12 13  2  0
 13 14  1  0
 14 15  2  0
 15 16  1  0
 15 17  1  0
 17 18  2  0
 18 12  1  0
 11 19  2  0
 19  5  1  0
 19 20  1  0
 20 21  2  0
 21 22  1  0
 22 23  2  0
 23 24  1  0
 23 25  1  0
 25 26  2  0
 26 20  1  0
M  END
> <Score_ID>
J93

> <ID_class>
J

> <No>
1745

> <Canonical_Smiles>
CNC(=O)c1c(C)n(NC)c(c2ccc(N)cc2)c1c3ccc(F)cc3

$$$$

  SciTegic12192217542D

 26 28  0  0  0  0            999 V2000
    3.4276    3.0520    0.0000 C   0  0
    3.1277    1.5822    0.0000 N   0  0
    1.7049    1.1075    0.0000 C   0  0
    4.2506    0.5865    0.0000 C   0  0
    3.9511   -0.8815    0.0000 C   0  0
    4.9531   -1.9978    0.0000 C   0  0
    4.2010   -3.2956    0.0000 C   0  0
    4.8089   -4.6669    0.0000 C   0  0
    2.7343   -2.9815    0.0000 C   0  0
    2.5987   -1.5004    0.0000 N   0  0
    1.2990   -0.7500    0.0000 C   0  0
    1.2990    0.7500    0.0000 C   0  0
    0.0000    1.5000    0.0000 C   0  0
   -1.2990    0.7500    0.0000 C   0  0
   -1.2990   -0.7500    0.0000 C   0  0
    0.0000   -1.5000    0.0000 C   0  0
   -2.6003    1.4977    0.0000 N   0  3
   -3.8983    0.7459    0.0000 O   0  0
   -2.6030    2.9977    0.0000 O   0  5
    6.4458   -1.8433    0.0000 C   0  0
    7.1563   -0.5278    0.0000 C   0  0
    8.6557   -0.4861    0.0000 C   0  0
    9.4415   -1.7638    0.0000 C   0  0
   10.9409   -1.7221    0.0000 F   0  0
    8.7279   -3.0832    0.0000 C   0  0
    7.2285   -3.1249    0.0000 C   0  0
  1  2  1  0
  2  3  1  0
  2  4  1  0
  4  5  1  0
  5  6  2  0
  6  7  1  0
  7  8  1  0
  7  9  2  0
  9 10  1  0
 10  5  1  0
 10 11  1  0
 11 12  2  0
 12 13  1  0
 13 14  2  0
 14 15  1  0
 15 16  2  0
 16 11  1  0
 14 17  1  0
 17 18  2  0
 17 19  1  0
  6 20  1  0
 20 21  2  0
 21 22  1  0
 22 23  2  0
 23 24  1  0
 23 25  1  0
 25 26  2  0
 26 20  1  0
M  CHG  2  17   1  19  -1
M  END
> <Score_ID>
J94

> <ID_class>
J

> <No>
1746

> <Canonical_Smiles>
CN(C)Cc1c(c(C)cn1c2ccc(cc2)[N+](=O)[O-])c3ccc(F)cc3

$$$$

  SciTegic12192217542D

 26 28  0  0  0  0            999 V2000
    5.1996   -1.4928    0.0000 C   0  0
    3.8990   -0.7455    0.0000 N   0  0
    3.8964    0.7545    0.0000 C   0  0
    2.6003   -1.4977    0.0000 C   0  0
    1.2990   -0.7500    0.0000 C   0  0
    1.2990    0.7500    0.0000 C   0  0
    0.0000    1.5000    0.0000 C   0  0
   -1.2990    0.7500    0.0000 C   0  0
   -1.2990   -0.7500    0.0000 C   0  0
    0.0000   -1.5000    0.0000 C   0  0
    0.0000   -3.0008    0.0000 C   0  0
    1.2149   -3.8587    0.0000 C   0  0
    0.7536   -5.2860    0.0000 C   0  0
    1.6372   -6.4981    0.0000 C   0  0
   -0.7464   -5.2884    0.0000 N   0  0
   -1.2122   -3.8625    0.0000 C   0  0
   -2.6374   -3.3926    0.0000 C   0  0
   -3.0562   -1.9577    0.0000 C   0  0
   -4.5135   -1.6025    0.0000 C   0  0
   -5.5498   -2.6871    0.0000 C   0  0
   -7.0071   -2.3319    0.0000 F   0  0
   -5.1286   -4.1267    0.0000 C   0  0
   -3.6713   -4.4819    0.0000 C   0  0
   -0.0031    3.0008    0.0000 N   0  3
   -1.3032    3.7490    0.0000 O   0  0
    1.2946    3.7531    0.0000 O   0  5
  1  2  1  0
  2  3  1  0
  2  4  1  0
  4  5  1  0
  5  6  2  0
  6  7  1  0
  7  8  2  0
  8  9  1  0
  9 10  2  0
 10  5  1  0
 10 11  1  0
 11 12  1  0
 12 13  2  0
 13 14  1  0
 13 15  1  0
 15 16  1  0
 16 11  2  0
 16 17  1  0
 17 18  2  0
 18 19  1  0
 19 20  2  0
 20 21  1  0
 20 22  1  0
 22 23  2  0
 23 17  1  0
  7 24  1  0
 24 25  2  0
 24 26  1  0
M  CHG  2  24   1  26  -1
M  END
> <Score_ID>
J95

> <ID_class>
J

> <No>
1747

> <Canonical_Smiles>
CN(C)Cc1cc(ccc1c2cc(C)[nH]c2c3ccc(F)cc3)[N+](=O)[O-]

$$$$

  SciTegic12192217542D

 25 27  0  0  0  0            999 V2000
    6.3470   -4.4025    0.0000 C   0  0
    5.2295   -3.4020    0.0000 N   0  0
    3.8056   -3.8679    0.0000 N   0  0
    2.5951   -3.0039    0.0000 C   0  0
    2.5973   -1.5031    0.0000 C   0  0
    1.2990   -0.7500    0.0000 N   0  0
    1.2990    0.7500    0.0000 C   0  0
    0.0000    1.5000    0.0000 C   0  0
   -1.2990    0.7500    0.0000 O   0  0
   -1.2990   -0.7500    0.0000 C   0  0
    0.0000   -1.5000    0.0000 C   0  0
    1.3786   -3.8595    0.0000 C   0  0
    1.8372   -5.2877    0.0000 C   0  0
    0.9513   -6.4982    0.0000 C   0  0
    3.3372   -5.2929    0.0000 C   0  0
    4.2151   -6.5101    0.0000 C   0  0
    3.7057   -7.9157    0.0000 C   0  0
    4.6722   -9.0628    0.0000 C   0  0
    6.1489   -8.7993    0.0000 C   0  0
    6.6591   -7.3888    0.0000 C   0  0
    5.6926   -6.2417    0.0000 C   0  0
    8.1366   -7.1252    0.0000 C   0  0
    9.1038   -8.2717    0.0000 F   0  0
    8.6463   -5.7144    0.0000 F   0  0
    9.6131   -6.8610    0.0000 F   0  0
  1  2  1  0
  2  3  1  0
  3  4  1  0
  4  5  1  0
  5  6  1  0
  6  7  1  0
  7  8  1  0
  8  9  1  0
  9 10  1  0
 10 11  1  0
 11  6  1  0
  4 12  2  0
 12 13  1  0
 13 14  1  0
 13 15  2  0
 15  3  1  0
 15 16  1  0
 16 17  2  0
 17 18  1  0
 18 19  2  0
 19 20  1  0
 20 21  2  0
 21 16  1  0
 20 22  1  0
 22 23  1  0
 22 24  1  0
 22 25  1  0
M  END
> <Score_ID>
J96

> <ID_class>
J

> <No>
1748

> <Canonical_Smiles>
CNn1c(CN2CCOCC2)cc(C)c1c3cccc(c3)C(F)(F)F

$$$$

  SciTegic12192217542D

 26 28  0  0  0  0            999 V2000
    4.8089   -4.6669    0.0000 C   0  0
    4.2010   -3.2956    0.0000 C   0  0
    4.9531   -1.9978    0.0000 C   0  0
    3.9511   -0.8815    0.0000 C   0  0
    4.2567    0.5852    0.0000 C   0  0
    5.6819    1.0557    0.0000 C   0  0
    5.9879    2.5241    0.0000 O   0  0
    6.8010    0.0568    0.0000 N   0  0
    2.5987   -1.5004    0.0000 C   0  0
    1.2990   -0.7500    0.0000 C   0  0
    1.2990    0.7500    0.0000 C   0  0
    0.0000    1.5000    0.0000 C   0  0
   -1.2990    0.7500    0.0000 C   0  0
   -2.5981    1.5000    0.0000 F   0  0
   -1.2990   -0.7500    0.0000 C   0  0
    0.0000   -1.5000    0.0000 C   0  0
    2.7343   -2.9815    0.0000 N   0  0
    1.6115   -3.9772    0.0000 C   0  0
    0.2308   -3.3862    0.0000 C   0  0
   -0.9669   -4.2892    0.0000 C   0  0
   -0.7837   -5.7780    0.0000 C   0  0
    0.5972   -6.3637    0.0000 C   0  0
    1.7949   -5.4607    0.0000 C   0  0
    3.1762   -6.0479    0.0000 N   0  3
    3.3591   -7.5367    0.0000 O   0  0
    4.3743   -5.1454    0.0000 O   0  5
  1  2  1  0
  2  3  2  0
  3  4  1  0
  4  5  1  0
  5  6  1  0
  6  7  2  0
  6  8  1  0
  4  9  2  0
  9 10  1  0
 10 11  2  0
 11 12  1  0
 12 13  2  0
 13 14  1  0
 13 15  1  0
 15 16  2  0
 16 10  1  0
  9 17  1  0
 17  2  1  0
 17 18  1  0
 18 19  2  0
 19 20  1  0
 20 21  2  0
 21 22  1  0
 22 23  2  0
 23 18  1  0
 23 24  1  0
 24 25  2  0
 24 26  1  0
M  CHG  2  24   1  26  -1
M  END
> <Score_ID>
J97

> <ID_class>
J

> <No>
1749

> <Canonical_Smiles>
Cc1cc(CC(=O)N)c(c2ccc(F)cc2)n1c3ccccc3[N+](=O)[O-]

$$$$

  SciTegic12192217542D

 26 28  0  0  0  0            999 V2000
    4.2146   -6.5095    0.0000 C   0  0
    3.3372   -5.2929    0.0000 C   0  0
    3.8056   -3.8679    0.0000 C   0  0
    2.5951   -3.0039    0.0000 N   0  0
    2.5973   -1.5031    0.0000 C   0  0
    1.2990   -0.7500    0.0000 C   0  0
    1.2990    0.7500    0.0000 C   0  0
    0.0000    1.5000    0.0000 C   0  0
   -1.2990    0.7500    0.0000 C   0  0
   -1.2990   -0.7500    0.0000 C   0  0
    0.0000   -1.5000    0.0000 C   0  0
   -2.5972   -1.5031    0.0000 C   0  0
   -2.5951   -3.0031    0.0000 O   0  0
   -3.8976   -0.7554    0.0000 N   0  0
    1.3786   -3.8595    0.0000 C   0  0
    1.8372   -5.2877    0.0000 C   0  0
    0.9508   -6.4988    0.0000 C   0  0
    1.6627   -7.8210    0.0000 C   0  0
    0.8704   -9.0947    0.0000 C   0  0
    1.5773  -10.4177    0.0000 F   0  0
   -0.6288   -9.0454    0.0000 C   0  0
   -1.3357   -7.7224    0.0000 C   0  0
   -0.5434   -6.4487    0.0000 C   0  0
   -1.2518   -5.1256    0.0000 N   0  3
   -2.7510   -5.0766    0.0000 O   0  0
   -0.4602   -3.8515    0.0000 O   0  5
  1  2  1  0
  2  3  2  0
  3  4  1  0
  4  5  1  0
  5  6  1  0
  6  7  2  0
  7  8  1  0
  8  9  2  0
  9 10  1  0
 10 11  2  0
 11  6  1  0
 10 12  1  0
 12 13  2  0
 12 14  1  0
  4 15  1  0
 15 16  2  0
 16  2  1  0
 16 17  1  0
 17 18  2  0
 18 19  1  0
 19 20  1  0
 19 21  2  0
 21 22  1  0
 22 23  2  0
 23 17  1  0
 23 24  1  0
 24 25  2  0
 24 26  1  0
M  CHG  2  24   1  26  -1
M  END
> <Score_ID>
J98

> <ID_class>
J

> <No>
1750

> <Canonical_Smiles>
Cc1cn(Cc2cccc(c2)C(=O)N)cc1c3cc(F)ccc3[N+](=O)[O-]

$$$$

  SciTegic12192217542D

 21 22  0  0  0  0            999 V2000
    1.2948   -3.7516    0.0000 C   0  0
    2.5951   -3.0039    0.0000 N   0  0
    2.5973   -1.5031    0.0000 C   0  0
    1.2990   -0.7500    0.0000 C   0  0
    1.2990    0.7500    0.0000 C   0  0
    0.0000    1.5000    0.0000 C   0  0
   -1.2990    0.7500    0.0000 C   0  0
   -2.5981    1.5000    0.0000 Br  0  0
   -1.2990   -0.7500    0.0000 C   0  0
    0.0000   -1.5000    0.0000 C   0  0
    3.8933   -3.7570    0.0000 C   0  0
    3.8912   -5.2578    0.0000 C   0  0
    5.1017   -6.1219    0.0000 C   0  0
    6.5271   -5.6548    0.0000 C   0  0
    4.6332   -7.5468    0.0000 N   0  0
    5.5107   -8.7634    0.0000 C   0  0
    3.1332   -7.5416    0.0000 N   0  0
    2.6747   -6.1134    0.0000 C   0  0
    1.2541   -5.6376    0.0000 N   0  3
    0.1296   -6.6303    0.0000 O   0  0
    0.9560   -4.1675    0.0000 O   0  5
  1  2  1  0
  2  3  1  0
  3  4  1  0
  4  5  2  0
  5  6  1  0
  6  7  2  0
  7  8  1  0
  7  9  1  0
  9 10  2  0
 10  4  1  0
  2 11  1  0
 11 12  1  0
 12 13  2  0
 13 14  1  0
 13 15  1  0
 15 16  1  0
 15 17  1  0
 17 18  2  0
 18 12  1  0
 18 19  1  0
 19 20  2  0
 19 21  1  0
M  CHG  2  19   1  21  -1
M  END
> <Score_ID>
J99

> <ID_class>
J

> <No>
1751

> <Canonical_Smiles>
CN(Cc1ccc(Br)cc1)Cc2c(C)n(C)nc2[N+](=O)[O-]

$$$$

  SciTegic12192217542D

 26 28  0  0  0  0            999 V2000
    2.5981   -1.5000    0.0000 C   0  0
    1.2990   -0.7500    0.0000 C   0  0
    1.2990    0.7500    0.0000 C   0  0
    0.0000    1.5000    0.0000 C   0  0
   -1.2990    0.7500    0.0000 C   0  0
   -2.5981    1.5000    0.0000 N   0  0
   -1.2990   -0.7500    0.0000 C   0  0
   -2.5972   -1.5031    0.0000 C   0  0
   -2.5951   -3.0039    0.0000 N   0  0
   -3.8933   -3.7570    0.0000 C   0  0
   -5.1937   -3.0093    0.0000 O   0  0
   -3.8912   -5.2578    0.0000 C   0  0
   -2.6746   -6.1134    0.0000 C   0  0
   -3.1332   -7.5416    0.0000 C   0  0
   -2.2473   -8.7521    0.0000 C   0  0
   -4.6332   -7.5468    0.0000 C   0  0
   -5.5111   -8.7640    0.0000 C   0  0
   -5.0018  -10.1696    0.0000 C   0  0
   -5.9683  -11.3167    0.0000 C   0  0
   -7.4449  -11.0533    0.0000 C   0  0
   -8.4115  -12.2004    0.0000 F   0  0
   -7.9551   -9.6427    0.0000 C   0  0
   -6.9886   -8.4956    0.0000 C   0  0
   -5.1017   -6.1219    0.0000 N   0  0
   -6.5271   -5.6548    0.0000 C   0  0
    0.0000   -1.5000    0.0000 C   0  0
  1  2  1  0
  2  3  2  0
  3  4  1  0
  4  5  2  0
  5  6  1  0
  5  7  1  0
  7  8  1  0
  8  9  1  0
  9 10  1  0
 10 11  2  0
 10 12  1  0
 12 13  2  0
 13 14  1  0
 14 15  1  0
 14 16  2  0
 16 17  1  0
 17 18  2  0
 18 19  1  0
 19 20  2  0
 20 21  1  0
 20 22  1  0
 22 23  2  0
 23 17  1  0
 16 24  1  0
 24 12  1  0
 24 25  1  0
  7 26  2  0
 26  2  1  0
M  END
> <Score_ID>
J100

> <ID_class>
J

> <No>
1752

> <Canonical_Smiles>
Cc1ccc(N)c(CNC(=O)c2cc(C)c(c3ccc(F)cc3)n2C)c1

$$$$

  SciTegic12192217542D

 24 25  0  0  0  0            999 V2000
    3.8983   -0.7459    0.0000 C   0  0
    2.6003   -1.4977    0.0000 N   0  0
    2.6030   -2.9977    0.0000 C   0  0
    1.2990   -0.7500    0.0000 C   0  0
    1.2990    0.7500    0.0000 C   0  0
    0.0000    1.5000    0.0000 C   0  0
    0.0000    3.0000    0.0000 F   0  0
   -1.2990    0.7500    0.0000 C   0  0
   -1.2990   -0.7500    0.0000 C   0  0
    0.0000   -1.5000    0.0000 C   0  0
   -0.0031   -3.0008    0.0000 C   0  0
   -1.3039   -3.7494    0.0000 N   0  0
   -1.4469   -5.2298    0.0000 C   0  0
   -0.3297   -6.2307    0.0000 C   0  0
   -2.9152   -5.5365    0.0000 C   0  0
   -3.6607   -4.2349    0.0000 C   0  0
   -2.6531   -3.1237    0.0000 C   0  0
   -2.9452   -1.6542    0.0000 C   0  0
   -1.8179   -0.6647    0.0000 O   0  0
   -4.3657   -1.1723    0.0000 C   0  0
   -5.1502   -4.0731    0.0000 S   0  0
   -6.0368   -5.2830    0.0000 O   0  0
   -5.7551   -2.7005    0.0000 O   0  0
   -6.6413   -3.9104    0.0000 C   0  0
  1  2  1  0
  2  3  1  0
  2  4  1  0
  4  5  2  0
  5  6  1  0
  6  7  1  0
  6  8  2  0
  8  9  1  0
  9 10  2  0
 10  4  1  0
 10 11  1  0
 11 12  1  0
 12 13  1  0
 13 14  1  0
 13 15  2  0
 15 16  1  0
 16 17  2  0
 17 12  1  0
 17 18  1  0
 18 19  2  0
 18 20  1  0
 16 21  1  0
 21 22  2  0
 21 23  2  0
 21 24  1  0
M  END
> <Score_ID>
J101

> <ID_class>
J

> <No>
1753

> <Canonical_Smiles>
CN(C)c1cc(F)ccc1Cn2c(C)cc(c2C(=O)C)S(=O)(=O)C

$$$$

  SciTegic12192217542D

 26 28  0  0  0  0            999 V2000
    0.6791   -9.0832    0.0000 C   0  0
    1.5625   -7.8709    0.0000 N   0  0
    3.0540   -8.0302    0.0000 C   0  0
    0.9548   -6.4986    0.0000 C   0  0
   -0.5367   -6.3392    0.0000 O   0  0
    1.8372   -5.2877    0.0000 C   0  0
    3.3372   -5.2929    0.0000 C   0  0
    3.8056   -3.8679    0.0000 C   0  0
    5.2311   -3.4009    0.0000 C   0  0
    2.5951   -3.0039    0.0000 N   0  0
    2.5973   -1.5031    0.0000 C   0  0
    3.8976   -0.7537    0.0000 C   0  0
    3.9019    0.7463    0.0000 C   0  0
    5.2031    1.4926    0.0000 C   0  0
    6.4999    0.7389    0.0000 C   0  0
    6.4957   -0.7611    0.0000 C   0  0
    7.7926   -1.5148    0.0000 O   0  0
    5.1945   -1.5074    0.0000 C   0  0
    1.3786   -3.8595    0.0000 C   0  0
   -0.0443   -3.3823    0.0000 C   0  0
   -0.4558   -1.9453    0.0000 C   0  0
   -1.9113   -1.5828    0.0000 C   0  0
   -2.9530   -2.6621    0.0000 C   0  0
   -2.5392   -4.1039    0.0000 C   0  0
   -3.5809   -5.1832    0.0000 F   0  0
   -1.0836   -4.4664    0.0000 C   0  0
  1  2  1  0
  2  3  1  0
  2  4  1  0
  4  5  2  0
  4  6  1  0
  6  7  1  0
  7  8  2  0
  8  9  1  0
  8 10  1  0
 10 11  1  0
 11 12  1  0
 12 13  2  0
 13 14  1  0
 14 15  2  0
 15 16  1  0
 16 17  1  0
 16 18  2  0
 18 12  1  0
 10 19  1  0
 19  6  2  0
 19 20  1  0
 20 21  2  0
 21 22  1  0
 22 23  2  0
 23 24  1  0
 24 25  1  0
 24 26  2  0
 26 20  1  0
M  END
> <Score_ID>
J102

> <ID_class>
J

> <No>
1754

> <Canonical_Smiles>
CN(C)C(=O)c1cc(C)n(Cc2cccc(O)c2)c1c3cccc(F)c3

$$$$

  SciTegic12192217542D

 26 28  0  0  0  0            999 V2000
    5.9477   -1.8948    0.0000 C   0  0
    4.9531   -1.9978    0.0000 C   0  0
    4.2010   -3.2956    0.0000 C   0  0
    2.7343   -2.9815    0.0000 C   0  0
    2.5987   -1.5004    0.0000 C   0  0
    1.2990   -0.7500    0.0000 C   0  0
    1.2990    0.7500    0.0000 C   0  0
    0.0000    1.5000    0.0000 C   0  0
   -1.2990    0.7500    0.0000 C   0  0
   -2.5981    1.5000    0.0000 F   0  0
   -1.2990   -0.7500    0.0000 C   0  0
    0.0000   -1.5000    0.0000 C   0  0
    3.9511   -0.8815    0.0000 N   0  0
    4.2567    0.5852    0.0000 N   0  0
    5.6819    1.0557    0.0000 C   0  0
    6.8026    0.0574    0.0000 C   0  0
    8.2277    0.5255    0.0000 C   0  0
    9.3457   -0.4745    0.0000 C   0  0
    9.0387   -1.9428    0.0000 C   0  0
   10.1567   -2.9428    0.0000 N   0  0
    7.6136   -2.4110    0.0000 C   0  0
    7.3065   -3.8792    0.0000 N   0  0
    6.4956   -1.4110    0.0000 C   0  0
    4.8054   -4.6666    0.0000 C   0  0
    3.9200   -5.8774    0.0000 O   0  0
    6.2966   -4.8284    0.0000 N   0  0
  1  2  1  0
  2  3  2  0
  3  4  1  0
  4  5  2  0
  5  6  1  0
  6  7  2  0
  7  8  1  0
  8  9  2  0
  9 10  1  0
  9 11  1  0
 11 12  2  0
 12  6  1  0
  5 13  1  0
 13  2  1  0
 13 14  1  0
 14 15  2  0
 15 16  1  0
 16 17  2  0
 17 18  1  0
 18 19  2  0
 19 20  1  0
 19 21  1  0
 21 22  1  0
 21 23  2  0
 23 16  1  0
  3 24  1  0
 24 25  2  0
 24 26  1  0
M  END
> <Score_ID>
J103

> <ID_class>
J

> <No>
1755

> <Canonical_Smiles>
Cc1c(cc(c2ccc(F)cc2)n1\N=C/c3ccc(N)c(N)c3)C(=O)N

$$$$

  SciTegic12192217542D

 26 28  0  0  0  0            999 V2000
    4.6063   -4.2098    0.0000 C   0  0
    4.2010   -3.2956    0.0000 C   0  0
    4.9531   -1.9978    0.0000 C   0  0
    6.4451   -1.8434    0.0000 N   0  0
    3.9511   -0.8815    0.0000 C   0  0
    4.2506    0.5865    0.0000 C   0  0
    3.1284    1.5817    0.0000 O   0  0
    5.6735    1.0612    0.0000 N   0  0
    2.5987   -1.5004    0.0000 C   0  0
    1.2990   -0.7500    0.0000 C   0  0
    1.2990    0.7500    0.0000 C   0  0
    0.0000    1.5000    0.0000 C   0  0
   -1.2990    0.7500    0.0000 C   0  0
   -2.5981    1.5000    0.0000 F   0  0
   -1.2990   -0.7500    0.0000 C   0  0
    0.0000   -1.5000    0.0000 C   0  0
    2.7343   -2.9815    0.0000 N   0  0
    1.6137   -3.9759    0.0000 N   0  0
    1.9143   -5.4464    0.0000 C   0  0
    3.3376   -5.9222    0.0000 C   0  0
    3.6401   -7.3915    0.0000 C   0  0
    5.0637   -7.8642    0.0000 C   0  0
    6.1849   -6.8677    0.0000 C   0  0
    7.6084   -7.3404    0.0000 O   0  0
    5.8825   -5.3985    0.0000 C   0  0
    4.4589   -4.9258    0.0000 C   0  0
  1  2  1  0
  2  3  2  0
  3  4  1  0
  3  5  1  0
  5  6  1  0
  6  7  2  0
  6  8  1  0
  5  9  2  0
  9 10  1  0
 10 11  2  0
 11 12  1  0
 12 13  2  0
 13 14  1  0
 13 15  1  0
 15 16  2  0
 16 10  1  0
  9 17  1  0
 17  2  1  0
 17 18  1  0
 18 19  2  0
 19 20  1  0
 20 21  2  0
 21 22  1  0
 22 23  2  0
 23 24  1  0
 23 25  1  0
 25 26  2  0
 26 20  1  0
M  END
> <Score_ID>
J104

> <ID_class>
J

> <No>
1756

> <Canonical_Smiles>
Cc1c(N)c(C(=O)N)c(c2ccc(F)cc2)n1\N=C/c3ccc(O)cc3

$$$$

  SciTegic12192217542D

 26 28  0  0  0  0            999 V2000
    1.6120   -3.9767    0.0000 C   0  0
    2.7343   -2.9815    0.0000 C   0  0
    4.2010   -3.2956    0.0000 C   0  0
    4.8089   -4.6669    0.0000 C   0  0
    4.9531   -1.9978    0.0000 N   0  0
    3.9511   -0.8815    0.0000 C   0  0
    4.2506    0.5865    0.0000 C   0  0
    3.1284    1.5817    0.0000 N   0  0
    5.6735    1.0612    0.0000 N   0  0
    2.5987   -1.5004    0.0000 C   0  0
    1.2990   -0.7500    0.0000 C   0  0
    1.2990    0.7500    0.0000 C   0  0
    0.0000    1.5000    0.0000 C   0  0
   -1.2990    0.7500    0.0000 C   0  0
   -2.5981    1.5000    0.0000 F   0  0
   -1.2990   -0.7500    0.0000 C   0  0
    0.0000   -1.5000    0.0000 C   0  0
    6.4458   -1.8433    0.0000 C   0  0
    6.9494   -0.4285    0.0000 C   0  0
    8.4256   -0.1623    0.0000 C   0  0
    9.3943   -1.3075    0.0000 C   0  0
    8.8868   -2.7191    0.0000 C   0  0
    7.4106   -2.9853    0.0000 C   0  0
    6.9040   -4.3981    0.0000 N   0  3
    7.8730   -5.5432    0.0000 O   0  0
    5.4280   -4.6652    0.0000 O   0  5
  1  2  1  0
  2  3  2  0
  3  4  1  0
  3  5  1  0
  5  6  1  0
  6  7  1  0
  7  8  2  0
  7  9  1  0
  6 10  2  0
 10  2  1  0
 10 11  1  0
 11 12  2  0
 12 13  1  0
 13 14  2  0
 14 15  1  0
 14 16  1  0
 16 17  2  0
 17 11  1  0
  5 18  1  0
 18 19  2  0
 19 20  1  0
 20 21  2  0
 21 22  1  0
 22 23  2  0
 23 18  1  0
 23 24  1  0
 24 25  2  0
 24 26  1  0
M  CHG  2  24   1  26  -1
M  END
> <Score_ID>
J105

> <ID_class>
J

> <No>
1757

> <Canonical_Smiles>
Cc1c(C)n(c(C(=N)N)c1c2ccc(F)cc2)c3ccccc3[N+](=O)[O-]

$$$$

  SciTegic12192217542D

 26 28  0  0  0  0            999 V2000
    1.2948   -3.7516    0.0000 C   0  0
    2.5951   -3.0039    0.0000 C   0  0
    3.8926   -3.7566    0.0000 O   0  0
    2.5973   -1.5031    0.0000 N   0  0
    1.2990   -0.7500    0.0000 C   0  0
    1.2990    0.7500    0.0000 C   0  0
    0.0000    1.5000    0.0000 C   0  0
   -1.2990    0.7500    0.0000 C   0  0
   -1.2990   -0.7500    0.0000 C   0  0
   -2.5972   -1.5031    0.0000 O   0  0
   -2.5951   -3.0039    0.0000 N   0  0
   -3.8933   -3.7570    0.0000 C   0  0
   -5.1951   -3.0101    0.0000 C   0  0
   -5.3339   -1.5293    0.0000 C   0  0
   -6.8013   -1.2184    0.0000 N   0  0
   -7.5505   -2.5179    0.0000 C   0  0
   -9.0422   -2.6757    0.0000 C   0  0
   -6.5461   -3.6320    0.0000 C   0  0
   -6.8484   -5.1020    0.0000 C   0  0
   -5.8127   -6.1798    0.0000 C   0  0
   -6.2306   -7.6204    0.0000 C   0  0
   -7.6872   -7.9788    0.0000 C   0  0
   -8.7258   -6.8965    0.0000 C   0  0
  -10.1824   -7.2549    0.0000 F   0  0
   -8.3079   -5.4559    0.0000 C   0  0
    0.0000   -1.5000    0.0000 C   0  0
  1  2  1  0
  2  3  2  0
  2  4  1  0
  4  5  1  0
  5  6  2  0
  6  7  1  0
  7  8  2  0
  8  9  1  0
  9 10  1  0
 10 11  1  0
 11 12  2  0
 12 13  1  0
 13 14  2  0
 14 15  1  0
 15 16  1  0
 16 17  1  0
 16 18  2  0
 18 13  1  0
 18 19  1  0
 19 20  2  0
 20 21  1  0
 21 22  2  0
 22 23  1  0
 23 24  1  0
 23 25  2  0
 25 19  1  0
  9 26  2  0
 26  5  1  0
M  END
> <Score_ID>
J106

> <ID_class>
J

> <No>
1758

> <Canonical_Smiles>
CC(=O)Nc1cccc(O\N=C/c2c[nH]c(C)c2c3cccc(F)c3)c1

$$$$

  SciTegic12192217542D

 25 27  0  0  1  0            999 V2000
    3.1476   -0.7184    0.0000 C   0  0
    1.6852   -0.3846    0.0000 C   0  0  2  0  0  0
    1.3514    1.0778    0.0000 C   0  0
    0.0000    1.7286    0.0000 C   0  0
   -1.3515    1.0777    0.0000 N   0  0
   -1.6852   -0.3847    0.0000 C   0  0
   -0.7500   -1.5574    0.0000 C   0  0
    0.7500   -1.5574    0.0000 N   0  0
    1.3993   -2.9127    0.0000 C   0  0
    2.8949   -3.0273    0.0000 O   0  0
    0.5521   -4.1515    0.0000 C   0  0
   -0.9350   -4.1732    0.0000 N   0  0
   -1.3606   -5.6115    0.0000 C   0  0
   -2.7745   -6.1127    0.0000 C   0  0
   -0.1242   -6.4608    0.0000 N   0  0
   -0.0845   -7.9603    0.0000 C   0  0
    1.0656   -5.5473    0.0000 C   0  0
    2.5071   -5.9646    0.0000 C   0  0
    3.6632   -5.0171    0.0000 C   0  0
    5.0664   -5.5472    0.0000 C   0  0
    6.2271   -4.5971    0.0000 F   0  0
    5.3089   -7.0275    0.0000 C   0  0
    4.1481   -7.9776    0.0000 C   0  0
    4.3906   -9.4579    0.0000 F   0  0
    2.7449   -7.4475    0.0000 C   0  0
  2  1  1  1
  2  3  1  0
  3  4  1  0
  4  5  1  0
  5  6  1  0
  6  7  1  0
  7  8  1  0
  8  2  1  0
  8  9  1  0
  9 10  2  0
  9 11  1  0
 11 12  1  0
 12 13  2  0
 13 14  1  0
 13 15  1  0
 15 16  1  0
 15 17  1  0
 17 11  2  0
 17 18  1  0
 18 19  2  0
 19 20  1  0
 20 21  1  0
 20 22  2  0
 22 23  1  0
 23 24  1  0
 23 25  2  0
 25 18  1  0
M  END
> <Score_ID>
J107

> <ID_class>
J

> <No>
1759

> <Canonical_Smiles>
C[C@@H]1CCNCCN1C(=O)c2nc(C)n(C)c2c3cc(F)cc(F)c3

$$$$

  SciTegic12192217542D

 23 25  0  0  0  0            999 V2000
    3.8983   -0.7459    0.0000 C   0  0
    2.6003   -1.4977    0.0000 S   0  0
    1.2990   -0.7500    0.0000 C   0  0
    1.2990    0.7500    0.0000 C   0  0
    0.0000    1.5000    0.0000 N   0  0
   -1.2990    0.7500    0.0000 C   0  0
   -1.2990   -0.7500    0.0000 N   0  0
    0.0000   -1.5000    0.0000 C   0  0
    0.0000   -3.0008    0.0000 C   0  0
    1.2122   -3.8625    0.0000 C   0  0
    2.6367   -3.3928    0.0000 N   0  0
    0.7464   -5.2884    0.0000 N   0  0
    1.6261   -6.5033    0.0000 C   0  0
   -0.7536   -5.2860    0.0000 C   0  0
   -1.2149   -3.8587    0.0000 C   0  0
   -2.6386   -3.3842    0.0000 C   0  0
   -3.6760   -4.4702    0.0000 C   0  0
   -5.1322   -4.1105    0.0000 C   0  0
   -5.5487   -2.6695    0.0000 C   0  0
   -7.0050   -2.3097    0.0000 F   0  0
   -4.5091   -1.5882    0.0000 C   0  0
   -3.0529   -1.9480    0.0000 C   0  0
   -2.0129   -0.8670    0.0000 Cl  0  0
  1  2  1  0
  2  3  1  0
  3  4  2  0
  4  5  1  0
  5  6  2  0
  6  7  1  0
  7  8  2  0
  8  3  1  0
  8  9  1  0
  9 10  2  0
 10 11  1  0
 10 12  1  0
 12 13  1  0
 12 14  1  0
 14 15  2  0
 15  9  1  0
 15 16  1  0
 16 17  2  0
 17 18  1  0
 18 19  2  0
 19 20  1  0
 19 21  1  0
 21 22  2  0
 22 16  1  0
 22 23  1  0
M  END
> <Score_ID>
J108

> <ID_class>
J

> <No>
1760

> <Canonical_Smiles>
CSc1cncnc1c2c(N)n(C)cc2c3ccc(F)cc3Cl

$$$$

  SciTegic12192217542D

 25 27  0  0  1  0            999 V2000
    2.5953   -3.0022    0.0000 C   0  0
    2.5978   -1.5022    0.0000 C   0  0  2  0  0  0
    1.2990   -0.7500    0.0000 N   0  0
    1.2990    0.7500    0.0000 C   0  0
    0.0000    1.5000    0.0000 C   0  0
   -1.2990    0.7500    0.0000 N   0  0
   -2.5981    1.5000    0.0000 C   0  0
   -1.2990   -0.7500    0.0000 C   0  0
    0.0000   -1.5000    0.0000 C   0  0
    3.8990   -0.7543    0.0000 C   0  0
    3.9042    0.7457    0.0000 N   0  0
    5.2057    1.4914    0.0000 C   0  0
    6.5022    0.7370    0.0000 C   0  0
    7.8038    1.4827    0.0000 C   0  0
    6.4972   -0.7629    0.0000 C   0  0
    7.7937   -1.5173    0.0000 N   0  0
    5.1957   -1.5086    0.0000 N   0  0
    5.2107    2.9921    0.0000 C   0  0
    3.9154    3.7486    0.0000 C   0  0
    3.9228    5.2486    0.0000 C   0  0
    2.6275    6.0050    0.0000 F   0  0
    5.2255    5.9922    0.0000 C   0  0
    6.5208    5.2358    0.0000 C   0  0
    7.8236    5.9794    0.0000 F   0  0
    6.5134    3.7358    0.0000 C   0  0
  2  1  1  6
  2  3  1  0
  3  4  1  0
  4  5  1  0
  5  6  1  0
  6  7  1  0
  6  8  1  0
  8  9  1  0
  9  3  1  0
  2 10  1  0
 10 11  2  3
 11 12  1  0
 12 13  2  3
 13 14  1  0
 13 15  1  0
 15 16  2  0
 15 17  1  0
 17 10  1  0
 12 18  1  0
 18 19  2  0
 19 20  1  0
 20 21  1  0
 20 22  2  0
 22 23  1  0
 23 24  1  0
 23 25  2  0
 25 18  1  0
M  END
> <Score_ID>
J109

> <ID_class>
J

> <No>
1761

> <Canonical_Smiles>
C[C@H](N1CCN(C)CC1)C2=NC(=C(C)C(=N)N2)c3cc(F)cc(F)c3

$$$$

  SciTegic12192217542D

 25 27  0  0  1  0            999 V2000
    4.8089   -4.6669    0.0000 C   0  0
    4.2010   -3.2956    0.0000 C   0  0
    4.9531   -1.9978    0.0000 N   0  0
    3.9511   -0.8815    0.0000 C   0  0
    4.2566    0.5871    0.0000 C   0  0
    2.5987   -1.5004    0.0000 C   0  0
    1.2990   -0.7500    0.0000 C   0  0
    0.0000   -1.5000    0.0000 C   0  0
   -1.2990   -0.7500    0.0000 C   0  0
   -1.2990    0.7500    0.0000 C   0  0
   -2.5973    1.5031    0.0000 N   0  0
   -2.5951    3.0031    0.0000 N   0  0
    0.0000    1.5000    0.0000 C   0  0
    1.2990    0.7500    0.0000 C   0  0
    2.5981    1.5000    0.0000 F   0  0
    2.7343   -2.9815    0.0000 C   0  0
    1.6137   -3.9759    0.0000 C   0  0  2  0  0  0
    0.1909   -3.4985    0.0000 C   0  0
   -0.1078   -2.0285    0.0000 N   0  0
    1.9143   -5.4464    0.0000 N   0  0
    0.7938   -6.4437    0.0000 C   0  0
    1.0972   -7.9127    0.0000 C   0  0
    2.5211   -8.3844    0.0000 C   0  0
    3.6416   -7.3872    0.0000 C   0  0
    3.3382   -5.9182    0.0000 C   0  0
  1  2  1  0
  2  3  1  0
  3  4  1  0
  4  5  1  0
  4  6  2  0
  6  7  1  0
  7  8  2  0
  8  9  1  0
  9 10  2  0
 10 11  1  0
 11 12  1  0
 10 13  1  0
 13 14  2  0
 14  7  1  0
 14 15  1  0
  6 16  1  0
 16  2  2  0
 16 17  1  0
 17 18  1  1
 18 19  1  0
 17 20  1  0
 20 21  1  0
 21 22  1  0
 22 23  1  0
 23 24  1  0
 24 25  1  0
 25 20  1  0
M  END
> <Score_ID>
J110

> <ID_class>
J

> <No>
1762

> <Canonical_Smiles>
Cc1[nH]c(C)c(c2ccc(NN)cc2F)c1[C@H](CN)N3CCCCC3

$$$$

  SciTegic12192217542D

 24 26  0  0  0  0            999 V2000
    3.8976   -0.7553    0.0000 C   0  0
    2.5973   -1.5031    0.0000 N   0  0
    2.5951   -3.0031    0.0000 S   0  0
    1.2990   -0.7500    0.0000 C   0  0
    1.2990    0.7500    0.0000 C   0  0
    0.0000    1.5000    0.0000 C   0  0
   -1.2990    0.7500    0.0000 C   0  0
   -1.2990   -0.7500    0.0000 C   0  0
    0.0000   -1.5000    0.0000 C   0  0
   -2.5987    1.5004    0.0000 C   0  0
   -2.7390    2.9810    0.0000 C   0  0
   -1.6193    3.9804    0.0000 N   0  0
   -0.1524    3.7684    0.0000 C   0  0
    0.4937    5.1221    0.0000 C   0  0
   -0.5941    6.1549    0.0000 C   0  0
   -1.9125    5.4395    0.0000 C   0  0
   -4.2067    3.2905    0.0000 C   0  0
   -4.8190    4.6599    0.0000 C   0  0
   -4.9546    1.9903    0.0000 C   0  0
   -6.4441    1.8282    0.0000 C   0  0
   -7.0500    0.4561    0.0000 O   0  0
   -7.3298    3.0388    0.0000 C   0  0
   -3.9492    0.8772    0.0000 N   0  0
   -4.2500   -0.5923    0.0000 N   0  0
  1  2  1  0
  2  3  1  0
  2  4  1  0
  4  5  2  0
  5  6  1  0
  6  7  2  0
  7  8  1  0
  8  9  2  0
  9  4  1  0
  7 10  1  0
 10 11  2  0
 11 12  1  0
 12 13  1  0
 13 14  1  0
 14 15  1  0
 15 16  1  0
 16 12  1  0
 11 17  1  0
 17 18  1  0
 17 19  2  0
 19 20  1  0
 20 21  2  0
 20 22  1  0
 19 23  1  0
 23 10  1  0
 23 24  1  0
M  END
> <Score_ID>
J111

> <ID_class>
J

> <No>
1763

> <Canonical_Smiles>
CN(S)c1ccc(cc1)c2c(N3CCCC3)c(C)c(C(=O)C)n2N

$$$$

  SciTegic12192217542D

 25 27  0  0  1  0            999 V2000
    6.4451   -1.8434    0.0000 C   0  0
    4.9531   -1.9978    0.0000 C   0  0
    3.9511   -0.8815    0.0000 C   0  0
    4.2566    0.5871    0.0000 C   0  0
    2.5987   -1.5004    0.0000 C   0  0
    1.2990   -0.7500    0.0000 C   0  0
    1.2990    0.7500    0.0000 C   0  0
    0.0000    1.5000    0.0000 C   0  0
   -1.2990    0.7500    0.0000 C   0  0
   -1.2990   -0.7500    0.0000 C   0  0
    0.0000   -1.5000    0.0000 C   0  0
    0.0000   -3.0000    0.0000 F   0  0
    2.7343   -2.9815    0.0000 N   0  0
    1.6137   -3.9759    0.0000 N   0  0
    1.9143   -5.4464    0.0000 C   0  0
    0.7917   -6.4425    0.0000 C   0  0  1  0  0  0
    1.0899   -7.9126    0.0000 C   0  0
   -0.0341   -8.9060    0.0000 C   0  0
   -1.4563   -8.4293    0.0000 C   0  0
   -1.7546   -6.9592    0.0000 C   0  0
   -0.6306   -5.9659    0.0000 N   0  0
    4.2010   -3.2956    0.0000 C   0  0
    4.8111   -4.6641    0.0000 C   0  0
    6.3028   -4.8211    0.0000 O   0  0
    3.9296   -5.8777    0.0000 N   0  0
  1  2  1  0
  2  3  1  0
  3  4  1  0
  3  5  2  0
  5  6  1  0
  6  7  2  0
  7  8  1  0
  8  9  2  0
  9 10  1  0
 10 11  2  0
 11  6  1  0
 11 12  1  0
  5 13  1  0
 13 14  1  0
 14 15  1  0
 16 15  1  1
 16 17  1  0
 17 18  1  0
 18 19  1  0
 19 20  1  0
 20 21  1  0
 21 16  1  0
 13 22  1  0
 22  2  2  0
 22 23  1  0
 23 24  2  0
 23 25  1  0
M  END
> <Score_ID>
J112

> <ID_class>
J

> <No>
1764

> <Canonical_Smiles>
Cc1c(C)c(c2ccccc2F)n(NC[C@H]3CCCCN3)c1C(=O)N

$$$$

  SciTegic12192217542D

 25 27  0  0  1  0            999 V2000
    2.5981   -1.5000    0.0000 C   0  0
    1.2990   -0.7500    0.0000 N   0  0
    1.2990    0.7500    0.0000 C   0  0
    0.0000    1.5000    0.0000 C   0  0
   -1.2990    0.7500    0.0000 C   0  0
   -1.2990   -0.7500    0.0000 C   0  0
    0.0000   -1.5000    0.0000 C   0  0  2  0  0  0
   -0.0031   -3.0008    0.0000 C   0  0
   -1.3039   -3.7494    0.0000 N   0  0
   -1.3070   -5.2502    0.0000 N   0  0
   -0.0934   -6.1101    0.0000 C   0  0
   -0.5570   -7.5366    0.0000 C   0  0
    0.3247   -8.7502    0.0000 C   0  0
   -2.0570   -7.5366    0.0000 C   0  0
   -2.9391   -8.7508    0.0000 C   0  0
   -2.4347  -10.1581    0.0000 C   0  0
   -3.4052  -11.3019    0.0000 C   0  0
   -4.8809  -11.0333    0.0000 C   0  0
   -5.8514  -12.1770    0.0000 F   0  0
   -5.3862   -9.6209    0.0000 C   0  0
   -4.4157   -8.4772    0.0000 C   0  0
   -2.5205   -6.1100    0.0000 C   0  0
   -3.9408   -5.6332    0.0000 C   0  0
   -4.2392   -4.1632    0.0000 O   0  0
   -5.0649   -6.6263    0.0000 N   0  0
  1  2  1  0
  2  3  1  0
  3  4  1  0
  4  5  1  0
  5  6  1  0
  6  7  1  0
  7  2  1  0
  7  8  1  1
  8  9  1  0
  9 10  1  0
 10 11  1  0
 11 12  2  0
 12 13  1  0
 12 14  1  0
 14 15  1  0
 15 16  2  0
 16 17  1  0
 17 18  2  0
 18 19  1  0
 18 20  1  0
 20 21  2  0
 21 15  1  0
 14 22  2  0
 22 10  1  0
 22 23  1  0
 23 24  2  0
 23 25  1  0
M  END
> <Score_ID>
J113

> <ID_class>
J

> <No>
1765

> <Canonical_Smiles>
CN1CCCC[C@@H]1CNn2cc(C)c(c3ccc(F)cc3)c2C(=O)N

$$$$

  SciTegic12192217542D

 25 27  0  0  1  0            999 V2000
    2.5981   -1.5000    0.0000 C   0  0
    1.2990   -0.7500    0.0000 N   0  0
    1.2990    0.7500    0.0000 C   0  0
    0.0000    1.5000    0.0000 C   0  0
   -1.2990    0.7500    0.0000 C   0  0
   -1.2990   -0.7500    0.0000 C   0  0
    0.0000   -1.5000    0.0000 C   0  0  1  0  0  0
   -1.3170   -2.2179    0.0000 C   0  0
    1.2999   -2.2084    0.0000 N   0  0
    1.3745   -3.7074    0.0000 N   0  0
    2.6123   -4.5297    0.0000 C   0  0
    4.0213   -4.0152    0.0000 C   0  0
    2.1917   -5.9695    0.0000 C   0  0
    0.6924   -6.0144    0.0000 C   0  0
    0.1864   -4.6023    0.0000 C   0  0
   -1.2515   -4.1724    0.0000 C   0  0
   -1.7106   -2.7499    0.0000 C   0  0
   -3.1774   -2.4361    0.0000 C   0  0
   -4.1826   -3.5494    0.0000 C   0  0
   -5.6494   -3.2356    0.0000 F   0  0
   -3.7210   -4.9766    0.0000 C   0  0
   -2.2542   -5.2905    0.0000 C   0  0
    3.1058   -7.1566    0.0000 C   0  0
    2.5350   -8.5438    0.0000 O   0  0
    4.5926   -6.9578    0.0000 N   0  0
  1  2  1  0
  2  3  1  0
  3  4  1  0
  4  5  1  0
  5  6  1  0
  6  7  1  0
  7  2  1  0
  7  8  1  6
  7  9  1  0
  9 10  1  0
 10 11  1  0
 11 12  1  0
 11 13  2  0
 13 14  1  0
 14 15  2  0
 15 10  1  0
 15 16  1  0
 16 17  2  0
 17 18  1  0
 18 19  2  0
 19 20  1  0
 19 21  1  0
 21 22  2  0
 22 16  1  0
 13 23  1  0
 23 24  2  0
 23 25  1  0
M  END
> <Score_ID>
J114

> <ID_class>
J

> <No>
1766

> <Canonical_Smiles>
CN1CCCC[C@]1(C)Nn2c(C)c(cc2c3ccc(F)cc3)C(=O)N

$$$$

  SciTegic12192217542D

 25 27  0  0  0  0            999 V2000
    2.5981   -1.5000    0.0000 C   0  0
    1.2990   -0.7500    0.0000 C   0  0
    1.2990    0.7500    0.0000 C   0  0
    0.0000    1.5000    0.0000 C   0  0
   -1.2990    0.7500    0.0000 C   0  0
   -1.2990   -0.7500    0.0000 C   0  0
    0.0000   -1.5000    0.0000 C   0  0
    0.0000   -3.0008    0.0000 N   0  0
   -1.2978   -3.7529    0.0000 C   0  0
   -1.2955   -5.2529    0.0000 C   0  0
    0.0048   -6.0009    0.0000 O   0  0
    1.3026   -5.2488    0.0000 C   0  0
    1.3002   -3.7488    0.0000 C   0  0
   -2.5987    1.5004    0.0000 C   0  0
   -3.9492    0.8772    0.0000 C   0  0
   -4.9546    1.9903    0.0000 C   0  0
   -6.4441    1.8282    0.0000 C   0  0
   -7.0504    0.4553    0.0000 N   0  0
   -8.5416    0.2931    0.0000 N   0  0
   -7.3328    3.0377    0.0000 C   0  0
   -8.8238    2.8738    0.0000 N   0  0
   -4.2067    3.2905    0.0000 C   0  0
   -4.8190    4.6599    0.0000 C   0  0
   -2.7390    2.9810    0.0000 N   0  0
   -1.6199    3.9798    0.0000 N   0  0
  1  2  1  0
  2  3  2  0
  3  4  1  0
  4  5  2  0
  5  6  1  0
  6  7  2  0
  7  2  1  0
  7  8  1  0
  8  9  1  0
  9 10  1  0
 10 11  1  0
 11 12  1  0
 12 13  1  0
 13  8  1  0
  5 14  1  0
 14 15  2  0
 15 16  1  0
 16 17  1  0
 17 18  2  3
 18 19  1  0
 17 20  1  0
 20 21  1  0
 16 22  2  0
 22 23  1  0
 22 24  1  0
 24 14  1  0
 24 25  1  0
M  END
> <Score_ID>
J115

> <ID_class>
J

> <No>
1767

> <Canonical_Smiles>
Cc1ccc(cc1N2CCOCC2)c3cc(C(=NN)CN)c(C)n3N

$$$$

  SciTegic12192217542D

 24 27  0  0  1  0            999 V2000
    3.7960   -4.6635    0.0000 C   0  0
    4.1114   -3.1971    0.0000 C   0  0  2  0  0  0
    5.4796   -2.5822    0.0000 C   0  0
    5.3176   -1.0909    0.0000 C   0  0
    3.8493   -0.7842    0.0000 C   0  0
    3.1255   -2.0835    0.0000 N   0  0
    1.6332   -2.2426    0.0000 C   0  0
    1.0255   -3.6140    0.0000 O   0  0
    0.7500   -1.0323    0.0000 C   0  0
    1.2135    0.3943    0.0000 N   0  0
    0.0000    1.2760    0.0000 C   0  0
   -0.4623    2.7009    0.0000 S   0  0
   -1.9623    2.7008    0.0000 C   0  0
   -2.4258    1.2743    0.0000 C   0  0
   -3.8523    0.8104    0.0000 C   0  0
   -1.2135    0.3943    0.0000 N   0  0
   -0.7500   -1.0323    0.0000 C   0  0
   -1.6321   -2.2464    0.0000 C   0  0
   -3.1265   -2.2016    0.0000 C   0  0
   -3.9143   -3.4780    0.0000 C   0  0
   -3.2028   -4.7985    0.0000 C   0  0
   -3.9907   -6.0750    0.0000 F   0  0
   -1.7035   -4.8426    0.0000 C   0  0
   -0.9156   -3.5662    0.0000 C   0  0
  2  1  1  1
  2  3  1  0
  3  4  1  0
  4  5  1  0
  5  6  1  0
  6  2  1  0
  6  7  1  0
  7  8  2  0
  7  9  1  0
  9 10  1  0
 10 11  2  0
 11 12  1  0
 12 13  1  0
 13 14  2  0
 14 15  1  0
 14 16  1  0
 16 11  1  0
 16 17  1  0
 17  9  2  0
 17 18  1  0
 18 19  2  0
 19 20  1  0
 20 21  2  0
 21 22  1  0
 21 23  1  0
 23 24  2  0
 24 18  1  0
M  END
> <Score_ID>
J116

> <ID_class>
J

> <No>
1768

> <Canonical_Smiles>
C[C@@H]1CCCN1C(=O)c2nc3scc(C)n3c2c4ccc(F)cc4

$$$$

  SciTegic12192217542D

 25 27  0  0  0  0            999 V2000
    2.5981   -1.5000    0.0000 C   0  0
    1.2990   -0.7500    0.0000 C   0  0
    1.2990    0.7500    0.0000 C   0  0
    0.0000    1.5000    0.0000 C   0  0
   -1.2990    0.7500    0.0000 C   0  0
   -1.2990   -0.7500    0.0000 C   0  0
   -2.5981   -1.5000    0.0000 F   0  0
    0.0000   -1.5000    0.0000 C   0  0
    0.0000   -3.0000    0.0000 C   0  0
   -2.5987    1.5004    0.0000 N   0  0
   -2.7390    2.9810    0.0000 C   0  0
   -1.6216    3.9790    0.0000 C   0  0
   -1.9268    5.4485    0.0000 N   0  0
   -0.8080    6.4477    0.0000 N   0  0
   -4.2067    3.2905    0.0000 C   0  0
   -4.9546    1.9903    0.0000 N   0  0
   -3.9492    0.8772    0.0000 C   0  0
   -4.2501   -0.5931    0.0000 C   0  0
   -3.3293   -1.7546    0.0000 C   0  0
   -4.1747   -2.9937    0.0000 C   0  0
   -5.6144   -2.5726    0.0000 C   0  0
   -5.6588   -1.0732    0.0000 N   0  0
    0.0031    3.0008    0.0000 N   0  3
    1.3032    3.7490    0.0000 O   0  0
   -0.8621    3.5023    0.0000 O   0  5
  1  2  1  0
  2  3  2  0
  3  4  1  0
  4  5  2  0
  5  6  1  0
  6  7  1  0
  6  8  2  0
  8  2  1  0
  8  9  1  0
  5 10  1  0
 10 11  1  0
 11 12  1  0
 12 13  2  0
 13 14  1  0
 11 15  2  0
 15 16  1  0
 16 17  2  0
 17 10  1  0
 17 18  1  0
 18 19  2  0
 19 20  1  0
 20 21  2  0
 21 22  1  0
 22 18  1  0
  4 23  1  0
 23 24  2  0
 23 25  1  0
M  CHG  2  23   1  25  -1
M  END
> <Score_ID>
J117

> <ID_class>
J

> <No>
1769

> <Canonical_Smiles>
Cc1cc(c(c(F)c1C)n2c(\C=N\N)cnc2c3ccc[nH]3)[N+](=O)[O-]

$$$$

  SciTegic12192217542D

 25 27  0  0  0  0            999 V2000
    1.6120   -3.9767    0.0000 C   0  0
    2.7343   -2.9815    0.0000 C   0  0
    4.2010   -3.2956    0.0000 C   0  0
    4.9531   -1.9978    0.0000 C   0  0
    6.4437   -1.8466    0.0000 C   0  0
    7.3217   -3.0628    0.0000 O   0  0
    7.0583   -0.4784    0.0000 N   0  0
    3.9511   -0.8815    0.0000 N   0  0
    4.2506    0.5865    0.0000 N   0  0
    3.1277    1.5822    0.0000 C   0  0
    3.4277    3.0528    0.0000 C   0  0
    4.7899    3.6499    0.0000 C   0  0
    4.6239    5.1407    0.0000 N   0  0
    3.1548    5.4435    0.0000 N   0  0
    2.5363    6.8100    0.0000 C   0  0
    2.4128    4.1399    0.0000 C   0  0
    0.9230    3.9651    0.0000 N   0  0
    2.5987   -1.5004    0.0000 C   0  0
    1.2990   -0.7500    0.0000 C   0  0
    1.2990    0.7500    0.0000 C   0  0
    0.0000    1.5000    0.0000 C   0  0
   -1.2990    0.7500    0.0000 C   0  0
   -2.5981    1.5000    0.0000 F   0  0
   -1.2990   -0.7500    0.0000 C   0  0
    0.0000   -1.5000    0.0000 C   0  0
  1  2  1  0
  2  3  1  0
  3  4  2  0
  4  5  1  0
  5  6  2  0
  5  7  1  0
  4  8  1  0
  8  9  1  0
  9 10  2  0
 10 11  1  0
 11 12  1  0
 12 13  2  0
 13 14  1  0
 14 15  1  0
 14 16  1  0
 16 11  2  0
 16 17  1  0
  8 18  1  0
 18  2  2  0
 18 19  1  0
 19 20  2  0
 20 21  1  0
 21 22  2  0
 22 23  1  0
 22 24  1  0
 24 25  2  0
 25 19  1  0
M  END
> <Score_ID>
J118

> <ID_class>
J

> <No>
1770

> <Canonical_Smiles>
Cc1cc(C(=O)N)n(\N=C\c2cnn(C)c2N)c1c3ccc(F)cc3

$$$$

  SciTegic12192217542D

 24 26  0  0  1  0            999 V2000
    6.4451   -1.8434    0.0000 C   0  0
    4.9531   -1.9978    0.0000 C   0  0
    4.2010   -3.2956    0.0000 C   0  0
    2.7343   -2.9815    0.0000 C   0  0
    2.5987   -1.5004    0.0000 C   0  0
    1.2990   -0.7500    0.0000 C   0  0
    1.2990    0.7500    0.0000 C   0  0
    0.0000    1.5000    0.0000 C   0  0
   -1.2990    0.7500    0.0000 C   0  0
   -2.5981    1.5000    0.0000 F   0  0
   -1.2990   -0.7500    0.0000 C   0  0
    0.0000   -1.5000    0.0000 C   0  0
    3.9511   -0.8815    0.0000 N   0  0
    4.2567    0.5852    0.0000 C   0  0
    5.6819    1.0557    0.0000 C   0  0  1  0  0  0
    6.8010    0.0568    0.0000 C   0  0
    4.5628    2.0545    0.0000 S   0  0
    5.9880    2.5249    0.0000 C   0  0
    7.4127    2.9942    0.0000 C   0  0
    7.7186    4.4627    0.0000 C   0  0
    6.5999    5.4619    0.0000 C   0  0
    6.9058    6.9304    0.0000 N   0  0
    5.1752    4.9926    0.0000 C   0  0
    4.8692    3.5241    0.0000 C   0  0
  1  2  1  0
  2  3  2  0
  3  4  1  0
  4  5  2  0
  5  6  1  0
  6  7  2  0
  7  8  1  0
  8  9  2  0
  9 10  1  0
  9 11  1  0
 11 12  2  0
 12  6  1  0
  5 13  1  0
 13  2  1  0
 13 14  1  0
 14 15  1  0
 15 16  1  6
 15 17  1  0
 15 18  1  0
 18 19  2  0
 19 20  1  0
 20 21  2  0
 21 22  1  0
 21 23  1  0
 23 24  2  0
 24 18  1  0
M  END
> <Score_ID>
J119

> <ID_class>
J

> <No>
1771

> <Canonical_Smiles>
Cc1ccc(c2ccc(F)cc2)n1C[C@@](C)(S)c3ccc(N)cc3

$$$$

  SciTegic12192217542D

 24 26  0  0  0  0            999 V2000
    2.5981   -1.5000    0.0000 C   0  0
    1.2990   -0.7500    0.0000 C   0  0
    1.2990    0.7500    0.0000 C   0  0
    0.0000    1.5000    0.0000 C   0  0
   -1.2990    0.7500    0.0000 C   0  0
   -1.2990   -0.7500    0.0000 C   0  0
    0.0000   -1.5000    0.0000 C   0  0
   -2.5987    1.5004    0.0000 C   0  0
   -2.7390    2.9810    0.0000 C   0  0
   -4.2067    3.2905    0.0000 C   0  0
   -4.9546    1.9903    0.0000 C   0  0
   -6.4462    1.8312    0.0000 S   0  0
   -3.9492    0.8772    0.0000 N   0  0
   -4.2440   -0.5917    0.0000 C   0  0
   -3.1180   -1.5839    0.0000 C   0  0
   -3.4110   -3.0550    0.0000 C   0  0
   -2.2836   -4.0444    0.0000 C   0  0
   -0.8630   -3.5628    0.0000 C   0  0
    0.2644   -4.5522    0.0000 F   0  0
   -0.5699   -2.0917    0.0000 C   0  0
   -1.6973   -1.1023    0.0000 C   0  0
   -1.6216    3.9790    0.0000 C   0  0
   -1.9266    5.4477    0.0000 O   0  0
   -0.1971    3.5093    0.0000 N   0  0
  1  2  1  0
  2  3  2  0
  3  4  1  0
  4  5  2  0
  5  6  1  0
  6  7  2  0
  7  2  1  0
  5  8  1  0
  8  9  2  0
  9 10  1  0
 10 11  2  0
 11 12  1  0
 11 13  1  0
 13  8  1  0
 13 14  1  0
 14 15  1  0
 15 16  2  0
 16 17  1  0
 17 18  2  0
 18 19  1  0
 18 20  1  0
 20 21  2  0
 21 15  1  0
  9 22  1  0
 22 23  2  0
 22 24  1  0
M  END
> <Score_ID>
J120

> <ID_class>
J

> <No>
1772

> <Canonical_Smiles>
Cc1ccc(cc1)c2c(cc(S)n2Cc3ccc(F)cc3)C(=O)N

$$$$

  SciTegic12192217542D

 25 27  0  0  0  0            999 V2000
   -2.4816   -8.0240    0.0000 C   0  0
   -2.1560   -6.5597    0.0000 C   0  0
   -3.1493   -5.4357    0.0000 C   0  0
   -2.3872   -4.1437    0.0000 C   0  0
   -2.9763   -2.7642    0.0000 N   0  0
   -0.9394   -4.4837    0.0000 N   0  0
    0.1873   -3.4922    0.0000 N   0  0
    1.6096   -3.9713    0.0000 C   0  0
    2.7343   -2.9815    0.0000 C   0  0
    4.2010   -3.2956    0.0000 C   0  0
    4.9531   -1.9978    0.0000 C   0  0
    3.9511   -0.8815    0.0000 C   0  0
    4.2566    0.5871    0.0000 C   0  0
    2.5987   -1.5004    0.0000 N   0  0
    1.2990   -0.7500    0.0000 C   0  0
    1.2990    0.7500    0.0000 C   0  0
    0.0000    1.5000    0.0000 C   0  0
   -1.2990    0.7500    0.0000 C   0  0
   -2.5981    1.5000    0.0000 F   0  0
   -1.2990   -0.7500    0.0000 C   0  0
    0.0000   -1.5000    0.0000 C   0  0
    4.8111   -4.6641    0.0000 C   0  0
    6.3028   -4.8211    0.0000 O   0  0
    3.9296   -5.8777    0.0000 N   0  0
   -0.7801   -5.9624    0.0000 N   0  0
  1  2  1  0
  2  3  1  0
  3  4  2  0
  4  5  1  0
  4  6  1  0
  6  7  1  0
  7  8  2  0
  8  9  1  0
  9 10  2  0
 10 11  1  0
 11 12  2  0
 12 13  1  0
 12 14  1  0
 14  9  1  0
 14 15  1  0
 15 16  2  0
 16 17  1  0
 17 18  2  0
 18 19  1  0
 18 20  1  0
 20 21  2  0
 21 15  1  0
 10 22  1  0
 22 23  2  0
 22 24  1  0
  6 25  1  0
 25  2  2  0
M  END
> <Score_ID>
J121

> <ID_class>
J

> <No>
1773

> <Canonical_Smiles>
Cc1cc(N)n(\N=C\c2c(cc(C)n2c3ccc(F)cc3)C(=O)N)n1

$$$$

  SciTegic12192217542D

 25 27  0  0  0  0            999 V2000
    2.5981   -1.5000    0.0000 C   0  0
    1.2990   -0.7500    0.0000 C   0  0
    1.2990    0.7500    0.0000 C   0  0
    0.0000    1.5000    0.0000 C   0  0
   -1.2990    0.7500    0.0000 C   0  0
   -2.6003    1.4977    0.0000 C   0  0
   -3.8990    0.7455    0.0000 N   0  0
   -3.8978   -0.7554    0.0000 N   0  0
   -2.6818   -1.6117    0.0000 N   0  0
   -3.1413   -3.0396    0.0000 C   0  0
   -4.6413   -3.0439    0.0000 N   0  0
   -5.1089   -1.6186    0.0000 C   0  0
   -6.5340   -1.1507    0.0000 N   0  0
   -2.2557   -4.2512    0.0000 C   0  0
   -0.7615   -4.2022    0.0000 C   0  0
    0.0300   -5.4763    0.0000 C   0  0
   -0.6778   -6.7989    0.0000 C   0  0
    0.1137   -8.0731    0.0000 F   0  0
   -2.1770   -6.8472    0.0000 C   0  0
   -2.9685   -5.5731    0.0000 C   0  0
   -1.2990   -0.7500    0.0000 C   0  0
    0.0000   -1.5000    0.0000 C   0  0
   -0.0031   -3.0008    0.0000 N   0  3
   -1.3032   -3.7490    0.0000 O   0  0
    1.2947   -3.7531    0.0000 O   0  5
  1  2  1  0
  2  3  2  0
  3  4  1  0
  4  5  2  0
  5  6  1  0
  6  7  2  0
  7  8  1  0
  8  9  1  0
  9 10  2  0
 10 11  1  0
 11 12  2  0
 12  8  1  0
 12 13  1  0
 10 14  1  0
 14 15  2  0
 15 16  1  0
 16 17  2  0
 17 18  1  0
 17 19  1  0
 19 20  2  0
 20 14  1  0
  5 21  1  0
 21 22  2  0
 22  2  1  0
 22 23  1  0
 23 24  2  0
 23 25  1  0
M  CHG  2  23   1  25  -1
M  END
> <Score_ID>
J122

> <ID_class>
J

> <No>
1774

> <Canonical_Smiles>
Cc1ccc(\C=N/n2nc(nc2N)c3ccc(F)cc3)cc1[N+](=O)[O-]

$$$$

  SciTegic12192217542D

 22 23  0  0  0  0            999 V2000
    5.2099   -4.4901    0.0000 C   0  0
    3.9082   -3.7449    0.0000 C   0  0
    4.7724   -3.2418    0.0000 C   0  0
    3.9139   -5.2448    0.0000 O   0  0
    2.6060   -2.9986    0.0000 C   0  0
    2.6003   -1.4977    0.0000 N   0  0
    3.8990   -0.7455    0.0000 C   0  0
    5.2003   -1.4932    0.0000 C   0  0
    6.5517   -0.8722    0.0000 C   0  0
    7.5554   -1.9869    0.0000 C   0  0
    6.8054   -3.2859    0.0000 S   0  0
    5.3382   -2.9741    0.0000 C   0  0
    1.2990   -0.7500    0.0000 C   0  0
    1.2990    0.7500    0.0000 C   0  0
    0.0000    1.5000    0.0000 C   0  0
   -0.0031    3.0008    0.0000 C   0  0
   -1.3032    3.7490    0.0000 C   0  0
   -1.2990    0.7500    0.0000 C   0  0
   -1.2990   -0.7500    0.0000 C   0  0
   -2.5981   -1.5000    0.0000 Cl  0  0
    0.0000   -1.5000    0.0000 C   0  0
    0.0000   -3.0000    0.0000 F   0  0
  1  2  1  0
  2  3  1  0
  2  4  1  0
  2  5  1  0
  5  6  1  0
  6  7  1  0
  7  8  1  0
  8  9  1  0
  9 10  2  0
 10 11  1  0
 11 12  1  0
 12  8  2  0
  6 13  1  0
 13 14  2  0
 14 15  1  0
 15 16  1  0
 16 17  2  0
 15 18  2  0
 18 19  1  0
 19 20  1  0
 19 21  2  0
 21 13  1  0
 21 22  1  0
M  END
> <Score_ID>
J123

> <ID_class>
J

> <No>
1775

> <Canonical_Smiles>
CC(C)(O)CN(Cc1ccsc1)c2cc(C=C)cc(Cl)c2F

$$$$

  SciTegic12192217542D

 24 26  0  0  0  0            999 V2000
   -0.6923   -4.0811    0.0000 C   0  0
    0.3114   -2.9665    0.0000 C   0  0
    1.8032   -3.1233    0.0000 C   0  0
    2.5551   -4.4192    0.0000 C   0  0
    4.0559   -4.4171    0.0000 S   0  0
    4.8090   -5.7153    0.0000 C   0  0
    6.3090   -5.7153    0.0000 C   0  0
    7.0591   -7.0143    0.0000 C   0  0
    6.3092   -8.3134    0.0000 C   0  0
    7.0592   -9.6124    0.0000 N   0  0
    4.8092   -8.3134    0.0000 C   0  0
    4.0591   -7.0144    0.0000 C   0  0
    2.4133   -1.7530    0.0000 C   0  0
    3.8794   -1.4442    0.0000 C   0  0
    4.8823   -2.5608    0.0000 N   0  3
    6.3501   -2.2517    0.0000 C   0  0
    4.4166   -3.9866    0.0000 C   0  0
    4.3452   -0.0183    0.0000 N   0  0
    1.2990   -0.7500    0.0000 C   0  0
    1.2990    0.7500    0.0000 C   0  0
    0.0000    1.5000    0.0000 C   0  0
   -1.2990    0.7500    0.0000 C   0  0
   -1.2990   -0.7500    0.0000 C   0  0
    0.0000   -1.5000    0.0000 N   0  0
  1  2  1  0
  2  3  2  0
  3  4  1  0
  4  5  1  0
  5  6  1  0
  6  7  2  0
  7  8  1  0
  8  9  2  0
  9 10  1  0
  9 11  1  0
 11 12  2  0
 12  6  1  0
  3 13  1  0
 13 14  1  0
 14 15  2  3
 15 16  1  0
 15 17  1  0
 14 18  1  0
 13 19  2  0
 19 20  1  0
 20 21  2  0
 21 22  1  0
 22 23  2  0
 23 24  1  0
 24  2  1  0
 24 19  1  0
M  CHG  1  15   1
M  END
> <Score_ID>
J124

> <ID_class>
J

> <No>
1776

> <Canonical_Smiles>
Cc1c(CSc2ccc(N)cc2)c(C(=[N+](C)C)N)c3ccccn13

$$$$

  SciTegic12192217542D

 25 27  0  0  0  0            999 V2000
    7.7402   -4.0939    0.0000 C   0  0
    6.2484   -4.2507    0.0000 C   0  0
    5.4984   -5.5497    0.0000 C   0  0
    4.0312   -5.2378    0.0000 C   0  0
    2.9122   -6.2341    0.0000 C   0  0
    3.2149   -7.7032    0.0000 O   0  0
    1.4884   -5.7620    0.0000 N   0  0
    3.8933   -3.7570    0.0000 N   0  0
    2.5951   -3.0039    0.0000 N   0  0
    2.5973   -1.5031    0.0000 C   0  0
    1.2990   -0.7500    0.0000 C   0  0
    1.2990    0.7500    0.0000 C   0  0
    0.0000    1.5000    0.0000 C   0  0
   -1.2990    0.7500    0.0000 C   0  0
   -2.5981    1.5000    0.0000 N   0  0
   -1.2990   -0.7500    0.0000 C   0  0
    0.0000   -1.5000    0.0000 C   0  0
    5.2447   -3.1359    0.0000 C   0  0
    5.5480   -1.6662    0.0000 C   0  0
    4.5130   -0.5877    0.0000 C   0  0
    4.9319    0.8526    0.0000 C   0  0
    6.3887    1.2101    0.0000 C   0  0
    7.4266    0.1272    0.0000 C   0  0
    8.8834    0.4846    0.0000 F   0  0
    7.0078   -1.3131    0.0000 C   0  0
  1  2  1  0
  2  3  1  0
  3  4  2  0
  4  5  1  0
  5  6  2  0
  5  7  1  0
  4  8  1  0
  8  9  1  0
  9 10  1  0
 10 11  1  0
 11 12  2  0
 12 13  1  0
 13 14  2  0
 14 15  1  0
 14 16  1  0
 16 17  2  0
 17 11  1  0
  8 18  1  0
 18  2  2  0
 18 19  1  0
 19 20  2  0
 20 21  1  0
 21 22  2  0
 22 23  1  0
 23 24  1  0
 23 25  2  0
 25 19  1  0
M  END
> <Score_ID>
J125

> <ID_class>
J

> <No>
1777

> <Canonical_Smiles>
Cc1cc(C(=O)N)n(NCc2ccc(N)cc2)c1c3cccc(F)c3

$$$$

  SciTegic12192217542D

 23 24  0  0  0  0            999 V2000
    0.9513   -6.4982    0.0000 C   0  0
    1.8372   -5.2877    0.0000 C   0  0
    1.3786   -3.8595    0.0000 C   0  0
    2.5951   -3.0039    0.0000 C   0  0
    2.5973   -1.5031    0.0000 C   0  0
    1.2990   -0.7500    0.0000 C   0  0
    1.2990    0.7500    0.0000 C   0  0
    0.0000    1.5000    0.0000 C   0  0
   -1.2990    0.7500    0.0000 C   0  0
   -2.5981    1.5000    0.0000 N   0  0
   -1.2990   -0.7500    0.0000 C   0  0
    0.0000   -1.5000    0.0000 C   0  0
   -2.5972   -1.5031    0.0000 N   0  3
   -2.5951   -3.0031    0.0000 O   0  0
   -3.8976   -0.7554    0.0000 O   0  5
    3.8056   -3.8679    0.0000 C   0  0
    5.2311   -3.4009    0.0000 C   0  0
    3.3372   -5.2929    0.0000 N   0  0
    4.2111   -6.5099    0.0000 N   0  0
    3.5939   -7.8779    0.0000 S   0  0
    4.4688   -9.0963    0.0000 O   0  0
    2.1013   -8.0269    0.0000 O   0  0
    2.9764   -9.2450    0.0000 C   0  0
  1  2  1  0
  2  3  2  0
  3  4  1  0
  4  5  1  0
  5  6  1  0
  6  7  2  0
  7  8  1  0
  8  9  2  0
  9 10  1  0
  9 11  1  0
 11 12  2  0
 12  6  1  0
 11 13  1  0
 13 14  2  0
 13 15  1  0
  4 16  2  0
 16 17  1  0
 16 18  1  0
 18  2  1  0
 18 19  1  0
 19 20  1  0
 20 21  2  0
 20 22  2  0
 20 23  1  0
M  CHG  2  13   1  15  -1
M  END
> <Score_ID>
J126

> <ID_class>
J

> <No>
1778

> <Canonical_Smiles>
Cc1cc(Cc2ccc(N)c(c2)[N+](=O)[O-])c(C)n1NS(=O)(=O)C

$$$$

  SciTegic12192217542D

 25 27  0  0  0  0            999 V2000
    8.2058    3.9535    0.0000 C   0  0
    7.5976    2.5823    0.0000 N   0  0
    6.1053    2.4224    0.0000 C   0  0
    5.2216    3.6344    0.0000 O   0  0
    5.4979    1.0528    0.0000 C   0  0
    6.2524   -0.2436    0.0000 C   0  0
    5.2526   -1.3618    0.0000 C   0  0
    5.5608   -2.8298    0.0000 C   0  0
    3.8990   -0.7455    0.0000 N   0  0
    2.6003   -1.4977    0.0000 N   0  0
    1.2990   -0.7500    0.0000 C   0  0
    1.2990    0.7500    0.0000 C   0  0
    0.0000    1.5000    0.0000 C   0  0
   -1.2990    0.7500    0.0000 C   0  0
   -1.2990   -0.7500    0.0000 C   0  0
    0.0000   -1.5000    0.0000 C   0  0
    0.0000   -3.0000    0.0000 C   0  0
    4.0317    0.7359    0.0000 C   0  0
    2.9070    1.7295    0.0000 C   0  0
    1.4568    1.3674    0.0000 C   0  0
    0.4151    2.4467    0.0000 C   0  0
    0.8289    3.8884    0.0000 C   0  0
   -0.2128    4.9677    0.0000 F   0  0
    2.2845    4.2509    0.0000 C   0  0
    3.3262    3.1717    0.0000 C   0  0
  1  2  1  0
  2  3  1  0
  3  4  2  0
  3  5  1  0
  5  6  1  0
  6  7  2  0
  7  8  1  0
  7  9  1  0
  9 10  1  0
 10 11  1  0
 11 12  2  0
 12 13  1  0
 13 14  2  0
 14 15  1  0
 15 16  2  0
 16 11  1  0
 16 17  1  0
  9 18  1  0
 18  5  2  0
 18 19  1  0
 19 20  2  0
 20 21  1  0
 21 22  2  0
 22 23  1  0
 22 24  1  0
 24 25  2  0
 25 19  1  0
M  END
> <Score_ID>
J127

> <ID_class>
J

> <No>
1779

> <Canonical_Smiles>
CNC(=O)c1cc(C)n(Nc2ccccc2C)c1c3ccc(F)cc3

$$$$

  SciTegic12192217542D

 25 27  0  0  0  0            999 V2000
    6.8548    0.5969    0.0000 C   0  0
    6.5517   -0.8722    0.0000 C   0  0
    7.5554   -1.9869    0.0000 C   0  0
    9.0458   -1.8334    0.0000 C   0  0
    9.9257   -3.0482    0.0000 O   0  0
    9.6583   -0.4641    0.0000 N   0  0
    6.8054   -3.2859    0.0000 C   0  0
    5.3382   -2.9741    0.0000 C   0  0
    5.2003   -1.4932    0.0000 N   0  0
    3.8990   -0.7455    0.0000 N   0  0
    2.6003   -1.4977    0.0000 C   0  0
    1.2990   -0.7500    0.0000 C   0  0
    1.2990    0.7500    0.0000 C   0  0
    0.0000    1.5000    0.0000 C   0  0
   -1.2990    0.7500    0.0000 C   0  0
   -1.2990   -0.7500    0.0000 C   0  0
    0.0000   -1.5000    0.0000 C   0  0
    0.0000   -3.0000    0.0000 O   0  0
    7.4158   -4.6569    0.0000 C   0  0
    8.8869   -4.9238    0.0000 C   0  0
    9.3921   -6.3361    0.0000 C   0  0
    8.4217   -7.4798    0.0000 C   0  0
    8.9269   -8.8922    0.0000 F   0  0
    6.9459   -7.2113    0.0000 C   0  0
    6.4406   -5.7989    0.0000 C   0  0
  1  2  1  0
  2  3  2  0
  3  4  1  0
  4  5  2  0
  4  6  1  0
  3  7  1  0
  7  8  2  0
  8  9  1  0
  9  2  1  0
  9 10  1  0
 10 11  2  0
 11 12  1  0
 12 13  2  0
 13 14  1  0
 14 15  2  0
 15 16  1  0
 16 17  2  0
 17 12  1  0
 17 18  1  0
  7 19  1  0
 19 20  2  0
 20 21  1  0
 21 22  2  0
 22 23  1  0
 22 24  1  0
 24 25  2  0
 25 19  1  0
M  END
> <Score_ID>
J128

> <ID_class>
J

> <No>
1780

> <Canonical_Smiles>
Cc1c(C(=O)N)c(cn1\N=C\c2ccccc2O)c3ccc(F)cc3

$$$$

  SciTegic12192217542D

 25 27  0  0  0  0            999 V2000
    4.2566    0.5871    0.0000 C   0  0
    3.9511   -0.8815    0.0000 C   0  0
    2.5987   -1.5004    0.0000 C   0  0
    1.2990   -0.7500    0.0000 C   0  0
    1.2990    0.7500    0.0000 C   0  0
    0.0000    1.5000    0.0000 C   0  0
   -1.2990    0.7500    0.0000 C   0  0
   -2.5981    1.5000    0.0000 F   0  0
   -1.2990   -0.7500    0.0000 C   0  0
    0.0000   -1.5000    0.0000 C   0  0
    2.7343   -2.9815    0.0000 C   0  0
    4.2010   -3.2956    0.0000 C   0  0
    4.9531   -1.9978    0.0000 N   0  0
    6.4437   -1.8466    0.0000 N   0  0
    7.3221   -3.0635    0.0000 C   0  0
    6.7084   -4.4331    0.0000 C   0  0
    7.5847   -5.6506    0.0000 C   0  0
    6.9685   -7.0182    0.0000 C   0  0
    5.4760   -7.1684    0.0000 C   0  0
    4.8599   -8.5360    0.0000 N   0  0
    4.5997   -5.9510    0.0000 C   0  0
    5.2159   -4.5834    0.0000 C   0  0
    1.6137   -3.9759    0.0000 C   0  0
    1.9141   -5.4456    0.0000 O   0  0
    0.1907   -3.5017    0.0000 N   0  0
  1  2  1  0
  2  3  2  0
  3  4  1  0
  4  5  2  0
  5  6  1  0
  6  7  2  0
  7  8  1  0
  7  9  1  0
  9 10  2  0
 10  4  1  0
  3 11  1  0
 11 12  2  0
 12 13  1  0
 13  2  1  0
 13 14  1  0
 14 15  2  0
 15 16  1  0
 16 17  2  0
 17 18  1  0
 18 19  2  0
 19 20  1  0
 19 21  1  0
 21 22  2  0
 22 16  1  0
 11 23  1  0
 23 24  2  0
 23 25  1  0
M  END
> <Score_ID>
J129

> <ID_class>
J

> <No>
1781

> <Canonical_Smiles>
Cc1c(c2ccc(F)cc2)c(cn1\N=C/c3ccc(N)cc3)C(=O)N

$$$$

  SciTegic12192217542D

 23 25  0  0  0  0            999 V2000
    3.7332   -0.7121    0.0000 C   0  0
    3.1255   -2.0835    0.0000 N   0  0
    1.6332   -2.2426    0.0000 C   0  0
    0.7500   -1.0323    0.0000 C   0  0
    1.2135    0.3943    0.0000 N   0  0
    0.0000    1.2760    0.0000 C   0  0
    0.0000    2.7760    0.0000 C   0  0
   -1.2135    0.3943    0.0000 C   0  0
   -2.7115    0.3949    0.0000 S   0  0
   -3.1750   -1.0317    0.0000 C   0  0
   -1.9615   -1.9133    0.0000 C   0  0
   -0.7500   -1.0323    0.0000 N   0  0
    4.0102   -3.2959    0.0000 C   0  0
    3.4025   -4.6673    0.0000 O   0  0
    5.5026   -3.1368    0.0000 C   0  0
    6.3886   -4.3473    0.0000 C   0  0
    5.7833   -5.7197    0.0000 C   0  0
    7.8798   -4.1853    0.0000 C   0  0
    8.4852   -2.8129    0.0000 C   0  0
    9.9764   -2.6509    0.0000 F   0  0
    7.5993   -1.6024    0.0000 C   0  0
    6.1080   -1.7644    0.0000 C   0  0
    5.2222   -0.5539    0.0000 F   0  0
  1  2  1  0
  2  3  1  0
  3  4  1  0
  4  5  2  0
  5  6  1  0
  6  7  1  0
  6  8  2  0
  8  9  1  0
  9 10  1  0
 10 11  2  0
 11 12  1  0
 12  4  1  0
 12  8  1  0
  2 13  1  0
 13 14  2  0
 13 15  1  0
 15 16  2  0
 16 17  1  0
 16 18  1  0
 18 19  2  0
 19 20  1  0
 19 21  1  0
 21 22  2  0
 22 15  1  0
 22 23  1  0
M  END
> <Score_ID>
J130

> <ID_class>
J

> <No>
1782

> <Canonical_Smiles>
CN(Cc1nc(C)c2sccn12)C(=O)c3c(C)cc(F)cc3F

$$$$

  SciTegic12192217542D

 24 26  0  0  0  0            999 V2000
    1.6120   -3.9767    0.0000 C   0  0
    2.7343   -2.9815    0.0000 C   0  0
    4.2010   -3.2956    0.0000 N   0  0
    4.9531   -1.9978    0.0000 C   0  0
    3.9511   -0.8815    0.0000 C   0  0
    2.5987   -1.5004    0.0000 N   0  0
    1.2990   -0.7500    0.0000 C   0  0
    1.2990    0.7500    0.0000 C   0  0
    0.0000    1.5000    0.0000 C   0  0
   -1.2990    0.7500    0.0000 C   0  0
   -1.2990   -0.7500    0.0000 C   0  0
    0.0000   -1.5000    0.0000 C   0  0
   -2.5988    1.5004    0.0000 C   0  0
   -2.5998    3.0004    0.0000 F   0  0
   -3.8976    0.7500    0.0000 F   0  0
   -3.8982    2.2498    0.0000 F   0  0
    4.2537    0.5858    0.0000 C   0  0
    3.1325    1.5823    0.0000 C   0  0
    2.8301    0.1133    0.0000 C   0  0
    5.6779    1.0592    0.0000 N   0  0
    6.8765    0.1789    0.0000 C   0  0
    8.0841    1.0687    0.0000 C   0  0
    7.6109    2.4921    0.0000 C   0  0
    6.1109    2.4820    0.0000 C   0  0
  1  2  1  0
  2  3  2  0
  3  4  1  0
  4  5  2  0
  5  6  1  0
  6  2  1  0
  6  7  1  0
  7  8  2  0
  8  9  1  0
  9 10  2  0
 10 11  1  0
 11 12  2  0
 12  7  1  0
 10 13  1  0
 13 14  1  0
 13 15  1  0
 13 16  1  0
  5 17  1  0
 17 18  1  0
 17 19  1  0
 17 20  1  0
 20 21  1  0
 21 22  2  0
 22 23  1  0
 23 24  2  0
 24 20  1  0
M  END
> <Score_ID>
J131

> <ID_class>
J

> <No>
1783

> <Canonical_Smiles>
Cc1ncc(n1c2ccc(cc2)C(F)(F)F)C(C)(C)n3cccc3

$$$$

  SciTegic12192217542D

 23 25  0  0  0  0            999 V2000
    1.6120   -3.9767    0.0000 C   0  0
    2.7343   -2.9815    0.0000 C   0  0
    4.2010   -3.2956    0.0000 N   0  0
    4.9531   -1.9978    0.0000 N   0  0
    6.4437   -1.8466    0.0000 C   0  0
    7.3222   -3.0635    0.0000 C   0  0
    8.8094   -3.0534    0.0000 C   0  0
    9.2656   -4.4823    0.0000 C   0  0
    8.0477   -5.3578    0.0000 C   0  0
    6.8386   -4.4700    0.0000 S   0  0
    3.9511   -0.8815    0.0000 C   0  0
    4.2506    0.5865    0.0000 C   0  0
    3.1284    1.5817    0.0000 N   0  0
    5.6735    1.0612    0.0000 N   0  0
    2.5987   -1.5004    0.0000 C   0  0
    1.2990   -0.7500    0.0000 C   0  0
    1.2990    0.7500    0.0000 C   0  0
    0.0000    1.5000    0.0000 C   0  0
    0.0000    3.0000    0.0000 F   0  0
   -1.2990    0.7500    0.0000 C   0  0
   -1.2990   -0.7500    0.0000 C   0  0
    0.0000   -1.5000    0.0000 C   0  0
    0.0000   -3.0000    0.0000 F   0  0
  1  2  1  0
  2  3  2  0
  3  4  1  0
  4  5  1  0
  5  6  1  0
  6  7  2  0
  7  8  1  0
  8  9  2  0
  9 10  1  0
 10  6  1  0
  4 11  1  0
 11 12  1  0
 12 13  2  0
 12 14  1  0
 11 15  2  0
 15  2  1  0
 15 16  1  0
 16 17  2  0
 17 18  1  0
 18 19  1  0
 18 20  2  0
 20 21  1  0
 21 22  2  0
 22 16  1  0
 22 23  1  0
M  END
> <Score_ID>
J132

> <ID_class>
J

> <No>
1784

> <Canonical_Smiles>
Cc1nn(Cc2cccs2)c(C(=N)N)c1c3cc(F)ccc3F

$$$$

  SciTegic12192217542D

 22 23  0  0  0  0            999 V2000
    4.2566    0.5871    0.0000 C   0  0
    3.9511   -0.8815    0.0000 C   0  0
    4.9531   -1.9978    0.0000 N   0  0
    4.2010   -3.2956    0.0000 C   0  0
    2.7343   -2.9815    0.0000 C   0  0
    2.5987   -1.5004    0.0000 N   0  0
    1.2990   -0.7500    0.0000 C   0  0
    1.2990    0.7500    0.0000 C   0  0
    0.0000    1.5000    0.0000 C   0  0
   -0.0031    3.0008    0.0000 C   0  0
   -1.3039    3.7494    0.0000 N   0  0
   -1.3070    5.2502    0.0000 S   0  0
   -2.6071    5.9984    0.0000 O   0  0
   -0.0093    6.0025    0.0000 O   0  0
   -1.3094    6.7502    0.0000 N   0  0
   -1.2990    0.7500    0.0000 C   0  0
   -1.2990   -0.7500    0.0000 C   0  0
    0.0000   -1.5000    0.0000 C   0  0
   -2.5988   -1.5004    0.0000 C   0  0
   -3.8983   -0.7513    0.0000 F   0  0
   -2.5983   -3.0004    0.0000 F   0  0
   -3.8975   -2.2510    0.0000 F   0  0
  1  2  1  0
  2  3  2  0
  3  4  1  0
  4  5  2  0
  5  6  1  0
  6  2  1  0
  6  7  1  0
  7  8  2  0
  8  9  1  0
  9 10  1  0
 10 11  2  0
 11 12  1  0
 12 13  2  0
 12 14  2  0
 12 15  1  0
  9 16  2  0
 16 17  1  0
 17 18  2  0
 18  7  1  0
 17 19  1  0
 19 20  1  0
 19 21  1  0
 19 22  1  0
M  END
> <Score_ID>
J133

> <ID_class>
J

> <No>
1785

> <Canonical_Smiles>
Cc1nccn1c2cc(\C=N\S(=O)(=O)N)cc(c2)C(F)(F)F

$$$$

  SciTegic12192217542D

 24 26  0  0  1  0            999 V2000
    2.5981   -1.5000    0.0000 C   0  0
    1.2990   -0.7500    0.0000 N   0  0
    1.2990    0.7500    0.0000 C   0  0
    0.0000    1.5000    0.0000 C   0  0
   -1.2990    0.7500    0.0000 C   0  0
   -1.2990   -0.7500    0.0000 C   0  0
    0.0000   -1.5000    0.0000 C   0  0  1  0  0  0
   -0.0031   -3.0008    0.0000 N   0  0
   -1.3039   -3.7494    0.0000 N   0  0
   -1.4469   -5.2298    0.0000 C   0  0
   -0.3297   -6.2307    0.0000 C   0  0
   -2.9152   -5.5365    0.0000 C   0  0
   -3.6607   -4.2349    0.0000 C   0  0
   -5.1505   -4.0762    0.0000 C   0  0
   -6.0347   -5.2879    0.0000 O   0  0
   -5.7583   -2.7048    0.0000 N   0  0
   -2.6531   -3.1237    0.0000 C   0  0
   -2.9513   -1.6528    0.0000 C   0  0
   -1.9126   -0.5780    0.0000 C   0  0
   -2.3264    0.8638    0.0000 C   0  0
   -3.7820    1.2263    0.0000 C   0  0
   -4.1958    2.6681    0.0000 F   0  0
   -4.8237    0.1470    0.0000 C   0  0
   -4.4098   -1.2947    0.0000 C   0  0
  1  2  1  0
  2  3  1  0
  3  4  1  0
  4  5  1  0
  5  6  1  0
  6  7  1  0
  7  2  1  0
  7  8  1  6
  8  9  1  0
  9 10  1  0
 10 11  1  0
 10 12  2  0
 12 13  1  0
 13 14  1  0
 14 15  2  0
 14 16  1  0
 13 17  2  0
 17  9  1  0
 17 18  1  0
 18 19  2  0
 19 20  1  0
 20 21  2  0
 21 22  1  0
 21 23  1  0
 23 24  2  0
 24 18  1  0
M  END
> <Score_ID>
J134

> <ID_class>
J

> <No>
1786

> <Canonical_Smiles>
CN1CCCC[C@H]1Nn2c(C)cc(C(=O)N)c2c3ccc(F)cc3

$$$$

  SciTegic12192217542D

 24 26  0  0  0  0            999 V2000
   -2.6144    7.4986    0.0000 C   0  0
   -2.6101    5.9986    0.0000 N   0  0
   -1.3089    5.2523    0.0000 C   0  0
   -1.3046    3.7523    0.0000 C   0  0
   -2.6015    2.9986    0.0000 C   0  0
   -3.9027    3.7449    0.0000 C   0  0
   -3.9070    5.2449    0.0000 C   0  0
   -2.6003    1.4977    0.0000 N   0  0
   -3.8990    0.7455    0.0000 N   0  0
   -5.2526    1.3618    0.0000 C   0  0
   -5.5608    2.8298    0.0000 C   0  0
   -6.2524    0.2436    0.0000 C   0  0
   -5.4979   -1.0529    0.0000 C   0  0
   -6.1053   -2.4224    0.0000 C   0  0
   -7.5968   -2.5823    0.0000 O   0  0
   -5.2216   -3.6344    0.0000 N   0  0
   -4.0317   -0.7359    0.0000 C   0  0
   -2.9070   -1.7295    0.0000 C   0  0
   -3.3262   -3.1717    0.0000 C   0  0
   -2.2845   -4.2510    0.0000 C   0  0
   -0.8289   -3.8884    0.0000 C   0  0
   -0.4151   -2.4466    0.0000 C   0  0
   -1.4568   -1.3674    0.0000 C   0  0
   -1.0434    0.0745    0.0000 F   0  0
  1  2  1  0
  2  3  1  0
  3  4  1  0
  4  5  1  0
  5  6  1  0
  6  7  1  0
  7  2  1  0
  5  8  1  0
  8  9  1  0
  9 10  1  0
 10 11  1  0
 10 12  2  0
 12 13  1  0
 13 14  1  0
 14 15  2  0
 14 16  1  0
 13 17  2  0
 17  9  1  0
 17 18  1  0
 18 19  2  0
 19 20  1  0
 20 21  2  0
 21 22  1  0
 22 23  2  0
 23 18  1  0
 23 24  1  0
M  END
> <Score_ID>
J135

> <ID_class>
J

> <No>
1787

> <Canonical_Smiles>
CN1CCC(CC1)Nn2c(C)cc(C(=O)N)c2c3ccccc3F

$$$$

  SciTegic12192217542D

 24 26  0  0  0  0            999 V2000
    2.5981   -1.5000    0.0000 C   0  0
    1.2990   -0.7500    0.0000 N   0  0
    1.2990    0.7500    0.0000 C   0  0
    0.0000    1.5000    0.0000 C   0  0
   -1.2990    0.7500    0.0000 C   0  0
   -2.6003    1.4977    0.0000 C   0  0
   -3.8990    0.7455    0.0000 N   0  0
   -5.2526    1.3618    0.0000 C   0  0
   -5.5608    2.8298    0.0000 C   0  0
   -6.2524    0.2436    0.0000 C   0  0
   -5.4979   -1.0529    0.0000 C   0  0
   -4.0317   -0.7359    0.0000 C   0  0
   -2.9070   -1.7295    0.0000 C   0  0
   -1.4568   -1.3674    0.0000 C   0  0
   -0.4151   -2.4467    0.0000 C   0  0
   -0.8289   -3.8884    0.0000 C   0  0
    0.2128   -4.9677    0.0000 F   0  0
   -2.2845   -4.2510    0.0000 C   0  0
   -3.3262   -3.1717    0.0000 C   0  0
   -7.7433    0.3919    0.0000 C   0  0
   -8.6190   -0.8260    0.0000 O   0  0
   -8.3605    1.7590    0.0000 N   0  0
   -1.2990   -0.7500    0.0000 C   0  0
    0.0000   -1.5000    0.0000 C   0  0
  1  2  1  0
  2  3  1  0
  3  4  1  0
  4  5  1  0
  5  6  1  0
  6  7  1  0
  7  8  1  0
  8  9  1  0
  8 10  2  0
 10 11  1  0
 11 12  2  0
 12  7  1  0
 12 13  1  0
 13 14  2  0
 14 15  1  0
 15 16  2  0
 16 17  1  0
 16 18  1  0
 18 19  2  0
 19 13  1  0
 10 20  1  0
 20 21  2  0
 20 22  1  0
  5 23  1  0
 23 24  1  0
 24  2  1  0
M  END
> <Score_ID>
J136

> <ID_class>
J

> <No>
1788

> <Canonical_Smiles>
CN1CCC(Cn2c(C)c(cc2c3ccc(F)cc3)C(=O)N)CC1

$$$$

  SciTegic12192217542D

 24 26  0  0  0  0            999 V2000
    4.2566    0.5871    0.0000 C   0  0
    3.9511   -0.8815    0.0000 C   0  0
    2.5987   -1.5004    0.0000 C   0  0
    2.7343   -2.9815    0.0000 C   0  0
    4.2010   -3.2956    0.0000 N   0  0
    4.8054   -4.6666    0.0000 N   0  0
    3.9195   -5.8781    0.0000 C   0  0
    4.5250   -7.2514    0.0000 C   0  0
    3.7640   -8.5292    0.0000 N   0  0
    4.7659   -9.6456    0.0000 N   0  0
    6.1372   -9.0377    0.0000 C   0  0
    7.4351   -9.7898    0.0000 N   0  0
    5.9828   -7.5456    0.0000 N   0  0
    4.9531   -1.9978    0.0000 C   0  0
    6.4430   -1.8405    0.0000 C   0  0
    7.0533   -0.4702    0.0000 O   0  0
    7.3249   -3.0538    0.0000 N   0  0
    1.2990   -0.7500    0.0000 C   0  0
    1.2990    0.7500    0.0000 C   0  0
    0.0000    1.5000    0.0000 C   0  0
   -1.2990    0.7500    0.0000 C   0  0
   -1.2990   -0.7500    0.0000 C   0  0
    0.0000   -1.5000    0.0000 C   0  0
    0.0000   -3.0000    0.0000 F   0  0
  1  2  1  0
  2  3  1  0
  3  4  2  0
  4  5  1  0
  5  6  1  0
  6  7  1  0
  7  8  1  0
  8  9  2  0
  9 10  1  0
 10 11  1  0
 11 12  1  0
 11 13  2  0
 13  8  1  0
  5 14  1  0
 14  2  2  0
 14 15  1  0
 15 16  2  0
 15 17  1  0
  3 18  1  0
 18 19  2  0
 19 20  1  0
 20 21  2  0
 21 22  1  0
 22 23  2  0
 23 18  1  0
 23 24  1  0
M  END
> <Score_ID>
J137

> <ID_class>
J

> <No>
1789

> <Canonical_Smiles>
Cc1c(cn(NCc2n[nH]c(N)n2)c1C(=O)N)c3ccccc3F

$$$$

  SciTegic12192217542D

 23 24  0  0  0  0            999 V2000
    5.2311   -3.4009    0.0000 C   0  0
    3.8056   -3.8679    0.0000 C   0  0
    3.3372   -5.2929    0.0000 N   0  0
    1.8372   -5.2877    0.0000 C   0  0
    1.3786   -3.8595    0.0000 N   0  0
    2.5951   -3.0039    0.0000 N   0  0
    2.5973   -1.5031    0.0000 N   0  0
    1.2990   -0.7500    0.0000 C   0  0
    1.2990    0.7500    0.0000 C   0  0
    0.0000    1.5000    0.0000 C   0  0
   -1.2990    0.7500    0.0000 C   0  0
   -1.2990   -0.7500    0.0000 C   0  0
    0.0000   -1.5000    0.0000 C   0  0
   -2.5988   -1.5004    0.0000 C   0  0
   -3.8983   -0.7513    0.0000 F   0  0
   -2.5983   -3.0004    0.0000 F   0  0
   -3.8975   -2.2510    0.0000 F   0  0
   -0.0031    3.0008    0.0000 N   0  3
   -1.3032    3.7490    0.0000 O   0  0
    1.2946    3.7531    0.0000 O   0  5
    0.9498   -6.4949    0.0000 C   0  0
   -0.5412   -6.3308    0.0000 O   0  0
    1.5527   -7.8684    0.0000 N   0  0
  1  2  1  0
  2  3  2  0
  3  4  1  0
  4  5  2  0
  5  6  1  0
  6  2  1  0
  6  7  1  0
  7  8  1  0
  8  9  2  0
  9 10  1  0
 10 11  2  0
 11 12  1  0
 12 13  2  0
 13  8  1  0
 12 14  1  0
 14 15  1  0
 14 16  1  0
 14 17  1  0
 10 18  1  0
 18 19  2  0
 18 20  1  0
  4 21  1  0
 21 22  2  0
 21 23  1  0
M  CHG  2  18   1  20  -1
M  END
> <Score_ID>
J138

> <ID_class>
J

> <No>
1790

> <Canonical_Smiles>
Cc1nc(nn1Nc2cc(cc(c2)C(F)(F)F)[N+](=O)[O-])C(=O)N

$$$$

  SciTegic12192217542D

 23 25  0  0  0  0            999 V2000
    7.7402   -4.0939    0.0000 C   0  0
    6.2484   -4.2507    0.0000 C   0  0
    5.2447   -3.1359    0.0000 C   0  0
    3.8933   -3.7570    0.0000 C   0  0
    2.5951   -3.0039    0.0000 C   0  0
    2.5973   -1.5031    0.0000 N   0  0
    1.2990   -0.7500    0.0000 C   0  0
    1.2990    0.7500    0.0000 C   0  0
    0.0000    1.5000    0.0000 C   0  0
   -1.2990    0.7500    0.0000 C   0  0
   -1.2990   -0.7500    0.0000 C   0  0
   -2.5981   -1.5000    0.0000 Cl  0  0
    0.0000   -1.5000    0.0000 C   0  0
    4.0312   -5.2378    0.0000 N   0  0
    2.9105   -6.2349    0.0000 N   0  0
    5.4984   -5.5497    0.0000 C   0  0
    6.1088   -6.9207    0.0000 C   0  0
    5.3228   -8.1924    0.0000 C   0  0
    6.0343   -9.5130    0.0000 C   0  0
    7.5336   -9.5571    0.0000 C   0  0
    8.3215   -8.2807    0.0000 C   0  0
    9.8208   -8.3248    0.0000 F   0  0
    7.6100   -6.9601    0.0000 C   0  0
  1  2  1  0
  2  3  1  0
  3  4  2  0
  4  5  1  0
  5  6  1  0
  6  7  1  0
  7  8  2  0
  8  9  1  0
  9 10  2  0
 10 11  1  0
 11 12  1  0
 11 13  2  0
 13  7  1  0
  4 14  1  0
 14 15  1  0
 14 16  1  0
 16  2  2  0
 16 17  1  0
 17 18  2  0
 18 19  1  0
 19 20  2  0
 20 21  1  0
 21 22  1  0
 21 23  2  0
 23 17  1  0
M  END
> <Score_ID>
J139

> <ID_class>
J

> <No>
1791

> <Canonical_Smiles>
Cc1cc(CNc2cccc(Cl)c2)n(N)c1c3cccc(F)c3

$$$$

  SciTegic12192217542D

 24 26  0  0  1  0            999 V2000
    5.6802    1.0553    0.0000 C   0  0
    4.2557    0.5854    0.0000 C   0  0  2  0  0  0
    3.1368    1.5845    0.0000 N   0  0
    3.9511   -0.8815    0.0000 C   0  0
    2.5987   -1.5004    0.0000 C   0  0
    2.7343   -2.9815    0.0000 C   0  0
    4.2010   -3.2956    0.0000 C   0  0
    4.8092   -4.6676    0.0000 C   0  0
    4.1521   -5.9965    0.0000 C   0  0
    5.2383   -7.0310    0.0000 C   0  0
    6.5578   -6.3177    0.0000 N   0  0
    6.2871   -4.8423    0.0000 N   0  0
    5.0431   -8.5165    0.0000 N   0  0
    6.2328   -9.4301    0.0000 C   0  0
    3.6572   -9.0904    0.0000 C   0  0
    4.9531   -1.9978    0.0000 N   0  0
    6.4451   -1.8434    0.0000 N   0  0
    1.2990   -0.7500    0.0000 C   0  0
    1.2990    0.7500    0.0000 C   0  0
    0.0000    1.5000    0.0000 C   0  0
   -1.2990    0.7500    0.0000 C   0  0
   -2.5981    1.5000    0.0000 F   0  0
   -1.2990   -0.7500    0.0000 C   0  0
    0.0000   -1.5000    0.0000 C   0  0
  2  1  1  1
  2  3  1  0
  2  4  1  0
  4  5  2  0
  5  6  1  0
  6  7  2  0
  7  8  1  0
  8  9  2  0
  9 10  1  0
 10 11  2  0
 11 12  1  0
 12  8  1  0
 10 13  1  0
 13 14  1  0
 13 15  1  0
  7 16  1  0
 16  4  1  0
 16 17  1  0
  5 18  1  0
 18 19  2  0
 19 20  1  0
 20 21  2  0
 21 22  1  0
 21 23  1  0
 23 24  2  0
 24 18  1  0
M  END
> <Score_ID>
J140

> <ID_class>
J

> <No>
1792

> <Canonical_Smiles>
C[C@H](N)c1c(cc(c2cc(n[nH]2)N(C)C)n1N)c3ccc(F)cc3

$$$$

  SciTegic12192217542D

 24 26  0  0  0  0            999 V2000
    3.9200   -5.8774    0.0000 C   0  0
    4.8054   -4.6666    0.0000 N   0  0
    6.2966   -4.8284    0.0000 C   0  0
    4.2010   -3.2956    0.0000 N   0  0
    2.7343   -2.9815    0.0000 N   0  0
    2.5987   -1.5004    0.0000 C   0  0
    3.9511   -0.8815    0.0000 C   0  0
    4.2566    0.5871    0.0000 N   0  0
    4.9531   -1.9978    0.0000 C   0  0
    6.4437   -1.8466    0.0000 C   0  0
    7.3222   -3.0635    0.0000 N   0  0
    6.8386   -4.4700    0.0000 N   0  0
    8.0477   -5.3578    0.0000 C   0  0
    8.0401   -6.8578    0.0000 C   0  0
    9.2656   -4.4823    0.0000 N   0  0
    8.8094   -3.0534    0.0000 C   0  0
    9.6900   -1.8391    0.0000 C   0  0
    1.2990   -0.7500    0.0000 C   0  0
    1.2990    0.7500    0.0000 C   0  0
    0.0000    1.5000    0.0000 C   0  0
   -1.2990    0.7500    0.0000 C   0  0
   -1.2990   -0.7500    0.0000 C   0  0
   -2.5981   -1.5000    0.0000 F   0  0
    0.0000   -1.5000    0.0000 C   0  0
  1  2  1  0
  2  3  1  0
  2  4  1  0
  4  5  1  0
  5  6  2  0
  6  7  1  0
  7  8  1  0
  7  9  2  0
  9  4  1  0
  9 10  1  0
 10 11  1  0
 11 12  1  0
 12 13  2  0
 13 14  1  0
 13 15  1  0
 15 16  2  0
 16 11  1  0
 16 17  1  0
  6 18  1  0
 18 19  2  0
 19 20  1  0
 20 21  2  0
 21 22  1  0
 22 23  1  0
 22 24  2  0
 24 18  1  0
M  END
> <Score_ID>
J141

> <ID_class>
J

> <No>
1793

> <Canonical_Smiles>
CN(C)n1nc(c(N)c1Cn2nc(C)nc2C)c3cccc(F)c3

$$$$

  SciTegic12192217542D

 23 25  0  0  0  0            999 V2000
   -1.2250   -6.6252    0.0000 C   0  0
   -0.2234   -5.5086    0.0000 N   0  0
    1.2443   -5.8182    0.0000 C   0  0
   -0.6890   -4.0818    0.0000 C   0  0
    0.3114   -2.9665    0.0000 C   0  0
    1.8032   -3.1233    0.0000 C   0  0
    2.5532   -4.4223    0.0000 C   0  0
    2.4133   -1.7530    0.0000 C   0  0
    3.8813   -1.4408    0.0000 C   0  0
    4.9619   -2.4739    0.0000 C   0  0
    6.4015   -2.0524    0.0000 C   0  0
    6.7561   -0.5949    0.0000 C   0  0
    5.6713    0.4410    0.0000 C   0  0
    6.0260    1.8985    0.0000 F   0  0
    4.2318    0.0194    0.0000 C   0  0
    1.2990   -0.7500    0.0000 C   0  0
    1.2990    0.7500    0.0000 C   0  0
    2.5972    1.5031    0.0000 C   0  0
    2.5951    3.0031    0.0000 S   0  0
    0.0000    1.5000    0.0000 C   0  0
   -1.2990    0.7500    0.0000 C   0  0
   -1.2990   -0.7500    0.0000 C   0  0
    0.0000   -1.5000    0.0000 N   0  0
  1  2  1  0
  2  3  1  0
  2  4  1  0
  4  5  1  0
  5  6  2  0
  6  7  1  0
  6  8  1  0
  8  9  1  0
  9 10  2  0
 10 11  1  0
 11 12  2  0
 12 13  1  0
 13 14  1  0
 13 15  2  0
 15  9  1  0
  8 16  2  0
 16 17  1  0
 17 18  1  0
 18 19  1  0
 17 20  2  0
 20 21  1  0
 21 22  2  0
 22 23  1  0
 23  5  1  0
 23 16  1  0
M  END
> <Score_ID>
J142

> <ID_class>
J

> <No>
1794

> <Canonical_Smiles>
CN(C)Cc1c(C)c(c2cccc(F)c2)c3c(CS)cccn13

$$$$

  SciTegic12192217542D

 24 26  0  0  1  0            999 V2000
    4.2566    0.5871    0.0000 C   0  0
    3.9511   -0.8815    0.0000 C   0  0
    4.9531   -1.9978    0.0000 C   0  0
    4.2010   -3.2956    0.0000 N   0  0
    4.8054   -4.6666    0.0000 N   0  0
    3.9195   -5.8781    0.0000 C   0  0  1  0  0  0
    2.4283   -5.7163    0.0000 C   0  0
    3.2999   -4.4792    0.0000 C   0  0
    1.8086   -4.3186    0.0000 N   0  0
    4.5250   -7.2514    0.0000 C   0  0
    3.7613   -8.5276    0.0000 C   0  0
    4.7610   -9.6460    0.0000 N   0  0
    6.1335   -9.0409    0.0000 N   0  0
    7.4298   -9.7957    0.0000 C   0  0
    5.9822   -7.5486    0.0000 C   0  0
    2.7343   -2.9815    0.0000 C   0  0
    2.5987   -1.5004    0.0000 C   0  0
    1.2990   -0.7500    0.0000 C   0  0
    1.2990    0.7500    0.0000 C   0  0
    0.0000    1.5000    0.0000 C   0  0
   -1.2990    0.7500    0.0000 C   0  0
   -2.5981    1.5000    0.0000 F   0  0
   -1.2990   -0.7500    0.0000 C   0  0
    0.0000   -1.5000    0.0000 C   0  0
  1  2  1  0
  2  3  2  0
  3  4  1  0
  4  5  1  0
  5  6  1  0
  6  7  1  1
  6  8  1  0
  8  9  1  0
  6 10  1  0
 10 11  1  0
 11 12  2  0
 12 13  1  0
 13 14  1  0
 13 15  1  0
 15 10  2  0
  4 16  1  0
 16 17  2  0
 17  2  1  0
 17 18  1  0
 18 19  2  0
 19 20  1  0
 20 21  2  0
 21 22  1  0
 21 23  1  0
 23 24  2  0
 24 18  1  0
M  END
> <Score_ID>
J143

> <ID_class>
J

> <No>
1795

> <Canonical_Smiles>
Cc1cn(N[C@@](C)(CN)c2cnn(C)c2)cc1c3ccc(F)cc3

$$$$

  SciTegic12192217542D

 24 26  0  0  1  0            999 V2000
    5.9477   -1.8948    0.0000 C   0  0
    4.9531   -1.9978    0.0000 C   0  0
    4.2010   -3.2956    0.0000 C   0  0
    2.7343   -2.9815    0.0000 N   0  0
    2.5987   -1.5004    0.0000 C   0  0
    1.2990   -0.7500    0.0000 C   0  0
    1.2990    0.7500    0.0000 C   0  0
    0.0000    1.5000    0.0000 C   0  0
   -1.2990    0.7500    0.0000 C   0  0
   -2.5981    1.5000    0.0000 F   0  0
   -1.2990   -0.7500    0.0000 C   0  0
    0.0000   -1.5000    0.0000 C   0  0
    3.9511   -0.8815    0.0000 N   0  0
    4.2567    0.5852    0.0000 N   0  0
    5.6819    1.0557    0.0000 C   0  0  2  0  0  0
    6.8010    0.0568    0.0000 C   0  0
    5.3725   -0.4427    0.0000 C   0  0
    6.1191   -1.1080    0.0000 N   0  0
    5.9880    2.5249    0.0000 C   0  0
    7.3514    3.1191    0.0000 C   0  0
    7.1885    4.6102    0.0000 C   0  0
    5.7201    4.9162    0.0000 C   0  0
    4.9753    3.6141    0.0000 N   0  0
    3.4852    3.4424    0.0000 C   0  0
  1  2  1  0
  2  3  2  0
  3  4  1  0
  4  5  2  0
  5  6  1  0
  6  7  2  0
  7  8  1  0
  8  9  2  0
  9 10  1  0
  9 11  1  0
 11 12  2  0
 12  6  1  0
  5 13  1  0
 13  2  1  0
 13 14  1  0
 14 15  1  0
 15 16  1  6
 15 17  1  0
 17 18  1  0
 15 19  1  0
 19 20  2  0
 20 21  1  0
 21 22  2  0
 22 23  1  0
 23 19  1  0
 23 24  1  0
M  END
> <Score_ID>
J144

> <ID_class>
J

> <No>
1796

> <Canonical_Smiles>
Cc1cnc(c2ccc(F)cc2)n1N[C@](C)(CN)c3cccn3C

$$$$

  SciTegic12192217542D

 24 26  0  0  0  0            999 V2000
    4.8089   -4.6669    0.0000 C   0  0
    4.2010   -3.2956    0.0000 C   0  0
    2.7343   -2.9815    0.0000 N   0  0
    2.5987   -1.5004    0.0000 C   0  0
    3.9511   -0.8815    0.0000 C   0  0
    4.2566    0.5871    0.0000 C   0  0
    4.9531   -1.9978    0.0000 C   0  0
    6.4437   -1.8466    0.0000 C   0  0
    7.0583   -0.4784    0.0000 O   0  0
    7.3222   -3.0635    0.0000 N   0  0
    8.8153   -2.9121    0.0000 C   0  0
    9.6938   -4.1289    0.0000 C   0  0
   11.1810   -4.1188    0.0000 N   0  0
   11.6373   -5.5477    0.0000 N   0  0
   10.4193   -6.4232    0.0000 C   0  0
   10.4117   -7.9232    0.0000 N   0  0
    9.2103   -5.5354    0.0000 N   0  0
    1.2990   -0.7500    0.0000 C   0  0
    1.2990    0.7500    0.0000 C   0  0
    0.0000    1.5000    0.0000 C   0  0
   -1.2990    0.7500    0.0000 C   0  0
   -1.2990   -0.7500    0.0000 C   0  0
    0.0000   -1.5000    0.0000 C   0  0
    0.0000   -3.0000    0.0000 F   0  0
  1  2  1  0
  2  3  1  0
  3  4  1  0
  4  5  2  0
  5  6  1  0
  5  7  1  0
  7  2  2  0
  7  8  1  0
  8  9  2  0
  8 10  1  0
 10 11  1  0
 11 12  1  0
 12 13  2  0
 13 14  1  0
 14 15  1  0
 15 16  1  0
 15 17  2  0
 17 12  1  0
  4 18  1  0
 18 19  2  0
 19 20  1  0
 20 21  2  0
 21 22  1  0
 22 23  2  0
 23 18  1  0
 23 24  1  0
M  END
> <Score_ID>
J145

> <ID_class>
J

> <No>
1797

> <Canonical_Smiles>
Cc1[nH]c(c(C)c1C(=O)NCc2n[nH]c(N)n2)c3ccccc3F

$$$$

  SciTegic12192217542D

 24 26  0  0  0  0            999 V2000
    3.3253   -5.9229    0.0000 C   0  0
    1.9041   -5.4429    0.0000 N   0  0
    1.6096   -3.9713    0.0000 C   0  0
    2.7343   -2.9815    0.0000 C   0  0
    4.2010   -3.2956    0.0000 C   0  0
    4.8089   -4.6669    0.0000 N   0  0
    4.9531   -1.9978    0.0000 N   0  0
    3.9511   -0.8815    0.0000 C   0  0
    4.2566    0.5871    0.0000 C   0  0
    2.5987   -1.5004    0.0000 C   0  0
    1.2990   -0.7500    0.0000 C   0  0
    1.2990    0.7500    0.0000 C   0  0
    0.0000    1.5000    0.0000 C   0  0
   -1.2990    0.7500    0.0000 C   0  0
   -2.5981    1.5000    0.0000 F   0  0
   -1.2990   -0.7500    0.0000 C   0  0
    0.0000   -1.5000    0.0000 C   0  0
    0.0000   -3.0000    0.0000 F   0  0
    0.7776   -6.4345    0.0000 C   0  0
    1.0698   -7.9058    0.0000 C   0  0
   -0.0582   -8.8946    0.0000 C   0  0
   -1.4785   -8.4121    0.0000 C   0  0
   -1.7708   -6.9408    0.0000 C   0  0
   -0.6428   -5.9521    0.0000 C   0  0
  1  2  1  0
  2  3  1  0
  3  4  1  0
  4  5  2  0
  5  6  1  0
  5  7  1  0
  7  8  1  0
  8  9  1  0
  8 10  2  0
 10  4  1  0
 10 11  1  0
 11 12  2  0
 12 13  1  0
 13 14  2  0
 14 15  1  0
 14 16  1  0
 16 17  2  0
 17 11  1  0
 17 18  1  0
  2 19  1  0
 19 20  2  0
 20 21  1  0
 21 22  2  0
 22 23  1  0
 23 24  2  0
 24 19  1  0
M  END
> <Score_ID>
J146

> <ID_class>
J

> <No>
1798

> <Canonical_Smiles>
CN(Cc1c(N)[nH]c(C)c1c2ccc(F)cc2F)c3ccccc3

$$$$

  SciTegic12192217542D

 24 26  0  0  0  0            999 V2000
   -4.6425   -5.5786    0.0000 C   0  0
   -3.1493   -5.4357    0.0000 C   0  0
   -2.3872   -4.1437    0.0000 O   0  0
   -0.9394   -4.4837    0.0000 C   0  0
    0.1873   -3.4922    0.0000 C   0  0
    1.6096   -3.9713    0.0000 N   0  0
    2.7343   -2.9815    0.0000 N   0  0
    4.2010   -3.2956    0.0000 C   0  0
    4.8089   -4.6669    0.0000 C   0  0
    4.9531   -1.9978    0.0000 C   0  0
    3.9511   -0.8815    0.0000 C   0  0
    4.2567    0.5852    0.0000 C   0  0
    5.6811    1.0554    0.0000 O   0  0
    3.1377    1.5840    0.0000 N   0  0
    2.5987   -1.5004    0.0000 C   0  0
    1.2990   -0.7500    0.0000 C   0  0
    1.2990    0.7500    0.0000 C   0  0
    0.0000    1.5000    0.0000 C   0  0
   -1.2990    0.7500    0.0000 C   0  0
   -2.5981    1.5000    0.0000 F   0  0
   -1.2990   -0.7500    0.0000 C   0  0
    0.0000   -1.5000    0.0000 C   0  0
   -0.7801   -5.9624    0.0000 C   0  0
   -2.1560   -6.5597    0.0000 C   0  0
  1  2  1  0
  2  3  1  0
  3  4  1  0
  4  5  1  0
  5  6  1  0
  6  7  1  0
  7  8  1  0
  8  9  1  0
  8 10  2  0
 10 11  1  0
 11 12  1  0
 12 13  2  0
 12 14  1  0
 11 15  2  0
 15  7  1  0
 15 16  1  0
 16 17  2  0
 17 18  1  0
 18 19  2  0
 19 20  1  0
 19 21  1  0
 21 22  2  0
 22 16  1  0
  4 23  2  0
 23 24  1  0
 24  2  2  0
M  END
> <Score_ID>
J147

> <ID_class>
J

> <No>
1799

> <Canonical_Smiles>
Cc1oc(CNn2c(C)cc(C(=O)N)c2c3ccc(F)cc3)cc1

$$$$

  SciTegic12192217542D

 24 26  0  0  0  0            999 V2000
   -2.9114   -7.5376    0.0000 C   0  0
   -1.4182   -7.3946    0.0000 C   0  0
   -0.4249   -8.5186    0.0000 C   0  0
    0.9510   -7.9212    0.0000 O   0  0
    0.7917   -6.4425    0.0000 C   0  0
    1.9143   -5.4464    0.0000 C   0  0
    1.6137   -3.9759    0.0000 N   0  0
    2.7343   -2.9815    0.0000 N   0  0
    4.2010   -3.2956    0.0000 C   0  0
    4.9531   -1.9978    0.0000 C   0  0
    6.4437   -1.8466    0.0000 C   0  0
    7.3217   -3.0628    0.0000 O   0  0
    7.0583   -0.4784    0.0000 N   0  0
    3.9511   -0.8815    0.0000 C   0  0
    4.2566    0.5871    0.0000 C   0  0
    2.5987   -1.5004    0.0000 C   0  0
    1.2990   -0.7500    0.0000 C   0  0
    1.2990    0.7500    0.0000 C   0  0
    0.0000    1.5000    0.0000 C   0  0
   -1.2990    0.7500    0.0000 C   0  0
   -2.5981    1.5000    0.0000 F   0  0
   -1.2990   -0.7500    0.0000 C   0  0
    0.0000   -1.5000    0.0000 C   0  0
   -0.6562   -6.1026    0.0000 C   0  0
  1  2  1  0
  2  3  2  0
  3  4  1  0
  4  5  1  0
  5  6  1  0
  6  7  1  0
  7  8  1  0
  8  9  1  0
  9 10  2  0
 10 11  1  0
 11 12  2  0
 11 13  1  0
 10 14  1  0
 14 15  1  0
 14 16  2  0
 16  8  1  0
 16 17  1  0
 17 18  2  0
 18 19  1  0
 19 20  2  0
 20 21  1  0
 20 22  1  0
 22 23  2  0
 23 17  1  0
  5 24  2  0
 24  2  1  0
M  END
> <Score_ID>
J148

> <ID_class>
J

> <No>
1800

> <Canonical_Smiles>
Cc1coc(CNn2cc(C(=O)N)c(C)c2c3ccc(F)cc3)c1

$$$$

  SciTegic12192217542D

 24 26  0  0  0  0            999 V2000
   -2.9764   -2.7642    0.0000 C   0  0
   -2.3872   -4.1437    0.0000 C   0  0
   -3.1493   -5.4357    0.0000 O   0  0
   -2.1560   -6.5597    0.0000 C   0  0
   -0.7801   -5.9624    0.0000 C   0  0
   -0.9394   -4.4837    0.0000 C   0  0
    0.1873   -3.4922    0.0000 C   0  0
    1.6096   -3.9713    0.0000 N   0  0
    2.7343   -2.9815    0.0000 N   0  0
    4.2010   -3.2956    0.0000 C   0  0
    4.9531   -1.9978    0.0000 C   0  0
    3.9511   -0.8815    0.0000 C   0  0
    4.2566    0.5871    0.0000 C   0  0
    2.5987   -1.5004    0.0000 C   0  0
    1.2990   -0.7500    0.0000 C   0  0
    1.2990    0.7500    0.0000 C   0  0
    0.0000    1.5000    0.0000 C   0  0
   -1.2990    0.7500    0.0000 C   0  0
   -1.2990   -0.7500    0.0000 C   0  0
   -2.5981   -1.5000    0.0000 F   0  0
    0.0000   -1.5000    0.0000 C   0  0
    4.8111   -4.6641    0.0000 C   0  0
    6.3028   -4.8211    0.0000 O   0  0
    3.9296   -5.8777    0.0000 N   0  0
  1  2  1  0
  2  3  1  0
  3  4  1  0
  4  5  2  0
  5  6  1  0
  6  2  2  0
  6  7  1  0
  7  8  1  0
  8  9  1  0
  9 10  1  0
 10 11  2  0
 11 12  1  0
 12 13  1  0
 12 14  2  0
 14  9  1  0
 14 15  1  0
 15 16  2  0
 16 17  1  0
 17 18  2  0
 18 19  1  0
 19 20  1  0
 19 21  2  0
 21 15  1  0
 10 22  1  0
 22 23  2  0
 22 24  1  0
M  END
> <Score_ID>
J149

> <ID_class>
J

> <No>
1801

> <Canonical_Smiles>
Cc1occc1CNn2c(cc(C)c2c3cccc(F)c3)C(=O)N

$$$$

  SciTegic12192217542D

 24 26  0  0  0  0            999 V2000
    3.3373   -5.9206    0.0000 C   0  0
    1.9143   -5.4464    0.0000 N   0  0
    1.6137   -3.9759    0.0000 C   0  0
    2.7343   -2.9815    0.0000 C   0  0
    4.2010   -3.2956    0.0000 N   0  0
    4.9531   -1.9978    0.0000 C   0  0
    3.9511   -0.8815    0.0000 C   0  0
    4.2566    0.5871    0.0000 C   0  0
    2.5987   -1.5004    0.0000 C   0  0
    1.2990   -0.7500    0.0000 C   0  0
    1.2990    0.7500    0.0000 C   0  0
    0.0000    1.5000    0.0000 C   0  0
   -1.2990    0.7500    0.0000 C   0  0
   -2.5981    1.5000    0.0000 F   0  0
   -1.2990   -0.7500    0.0000 C   0  0
   -2.5981   -1.5000    0.0000 F   0  0
    0.0000   -1.5000    0.0000 C   0  0
    0.7917   -6.4425    0.0000 C   0  0
    1.0899   -7.9126    0.0000 C   0  0
   -0.0340   -8.9060    0.0000 C   0  0
   -1.4563   -8.4293    0.0000 C   0  0
   -2.5802   -9.4226    0.0000 C   0  0
   -1.7546   -6.9592    0.0000 C   0  0
   -0.6306   -5.9659    0.0000 C   0  0
  1  2  1  0
  2  3  1  0
  3  4  1  0
  4  5  1  0
  5  6  1  0
  6  7  2  0
  7  8  1  0
  7  9  1  0
  9  4  2  0
  9 10  1  0
 10 11  2  0
 11 12  1  0
 12 13  2  0
 13 14  1  0
 13 15  1  0
 15 16  1  0
 15 17  2  0
 17 10  1  0
  2 18  1  0
 18 19  2  0
 19 20  1  0
 20 21  2  0
 21 22  1  0
 21 23  1  0
 23 24  2  0
 24 18  1  0
M  END
> <Score_ID>
J150

> <ID_class>
J

> <No>
1802

> <Canonical_Smiles>
CN(Cc1[nH]cc(C)c1c2ccc(F)c(F)c2)c3ccc(C)cc3

$$$$

  SciTegic12192217542D

 24 26  0  0  0  0            999 V2000
    2.5981   -1.5000    0.0000 C   0  0
    1.2990   -0.7500    0.0000 C   0  0
    1.2990    0.7500    0.0000 C   0  0
    0.0000    1.5000    0.0000 C   0  0
   -1.2990    0.7500    0.0000 C   0  0
   -2.6003    1.4977    0.0000 N   0  0
   -3.8990    0.7455    0.0000 C   0  0
   -3.8964   -0.7545    0.0000 O   0  0
   -5.2003    1.4932    0.0000 C   0  0
   -6.5517    0.8722    0.0000 C   0  0
   -7.5554    1.9869    0.0000 C   0  0
   -9.0472    1.8301    0.0000 C   0  0
   -6.8054    3.2859    0.0000 C   0  0
   -5.3382    2.9741    0.0000 N   0  0
   -7.4158    4.6569    0.0000 C   0  0
   -8.8869    4.9237    0.0000 C   0  0
   -9.3922    6.3361    0.0000 C   0  0
   -8.4217    7.4798    0.0000 C   0  0
   -8.9270    8.8922    0.0000 F   0  0
   -6.9459    7.2112    0.0000 C   0  0
   -5.9754    8.3550    0.0000 F   0  0
   -6.4406    5.7989    0.0000 C   0  0
   -1.2990   -0.7500    0.0000 C   0  0
    0.0000   -1.5000    0.0000 C   0  0
  1  2  1  0
  2  3  2  0
  3  4  1  0
  4  5  2  0
  5  6  1  0
  6  7  1  0
  7  8  2  0
  7  9  1  0
  9 10  2  0
 10 11  1  0
 11 12  1  0
 11 13  2  0
 13 14  1  0
 14  9  1  0
 13 15  1  0
 15 16  2  0
 16 17  1  0
 17 18  2  0
 18 19  1  0
 18 20  1  0
 20 21  1  0
 20 22  2  0
 22 15  1  0
  5 23  1  0
 23 24  2  0
 24  2  1  0
M  END
> <Score_ID>
J151

> <ID_class>
J

> <No>
1803

> <Canonical_Smiles>
Cc1ccc(NC(=O)c2cc(C)c([nH]2)c3ccc(F)c(F)c3)cc1

$$$$

  SciTegic12192217542D

 24 26  0  0  1  0            999 V2000
    6.4451   -1.8434    0.0000 C   0  0
    4.9531   -1.9978    0.0000 C   0  0
    3.9511   -0.8815    0.0000 N   0  0
    2.5987   -1.5004    0.0000 C   0  0
    2.7343   -2.9815    0.0000 N   0  0
    4.2010   -3.2956    0.0000 N   0  0
    4.8054   -4.6666    0.0000 N   0  0
    3.9195   -5.8781    0.0000 C   0  0  1  0  0  0
    2.4283   -5.7163    0.0000 C   0  0
    3.3026   -4.4781    0.0000 C   0  0
    2.8993   -3.5630    0.0000 N   0  0
    4.5250   -7.2514    0.0000 C   0  0
    3.7613   -8.5276    0.0000 C   0  0
    4.7610   -9.6460    0.0000 C   0  0
    4.4437  -11.1121    0.0000 N   0  0
    6.1335   -9.0409    0.0000 N   0  0
    5.9822   -7.5486    0.0000 N   0  0
    1.2990   -0.7500    0.0000 C   0  0
    1.2990    0.7500    0.0000 C   0  0
    0.0000    1.5000    0.0000 C   0  0
   -1.2990    0.7500    0.0000 C   0  0
   -2.5981    1.5000    0.0000 F   0  0
   -1.2990   -0.7500    0.0000 C   0  0
    0.0000   -1.5000    0.0000 C   0  0
  1  2  1  0
  2  3  2  0
  3  4  1  0
  4  5  2  0
  5  6  1  0
  6  2  1  0
  6  7  1  0
  7  8  1  0
  8  9  1  1
  8 10  1  0
 10 11  3  0
  8 12  1  0
 12 13  1  0
 13 14  2  0
 14 15  1  0
 14 16  1  0
 16 17  1  0
 17 12  2  0
  4 18  1  0
 18 19  2  0
 19 20  1  0
 20 21  2  0
 21 22  1  0
 21 23  1  0
 23 24  2  0
 24 18  1  0
M  END
> <Score_ID>
J152

> <ID_class>
J

> <No>
1804

> <Canonical_Smiles>
Cc1nc(nn1N[C@@](C)(C#N)c2cc(N)[nH]n2)c3ccc(F)cc3

$$$$

  SciTegic12192217542D

 24 26  0  0  0  0            999 V2000
    3.8926   -3.7566    0.0000 C   0  0
    2.5951   -3.0039    0.0000 N   0  0
    1.7282   -3.5024    0.0000 C   0  0
    2.5973   -1.5031    0.0000 C   0  0
    1.2990   -0.7500    0.0000 C   0  0
    1.2990    0.7500    0.0000 C   0  0
    2.5981    1.5000    0.0000 C   0  0
    0.0000    1.5000    0.0000 C   0  0
   -0.0031    3.0008    0.0000 C   0  0
   -1.3039    3.7494    0.0000 N   0  0
   -1.4470    5.2297    0.0000 C   0  0
   -2.9153    5.5365    0.0000 N   0  0
   -3.6607    4.2349    0.0000 C   0  0
   -2.6532    3.1236    0.0000 N   0  0
   -1.2990    0.7500    0.0000 C   0  0
   -1.2990   -0.7500    0.0000 C   0  0
    0.0000   -1.5000    0.0000 C   0  0
    0.0000   -3.0008    0.0000 N   0  0
    1.2149   -3.8587    0.0000 N   0  0
    0.7536   -5.2860    0.0000 C   0  0
   -0.7464   -5.2884    0.0000 C   0  0
   -1.6261   -6.5033    0.0000 C   0  0
   -1.2122   -3.8625    0.0000 C   0  0
   -2.6367   -3.3928    0.0000 C   0  0
  1  2  1  0
  2  3  1  0
  2  4  1  0
  4  5  1  0
  5  6  2  0
  6  7  1  0
  6  8  1  0
  8  9  1  0
  9 10  1  0
 10 11  1  0
 11 12  2  0
 12 13  1  0
 13 14  2  0
 14 10  1  0
  8 15  2  0
 15 16  1  0
 16 17  2  0
 17  5  1  0
 17 18  1  0
 18 19  1  0
 19 20  2  0
 20 21  1  0
 21 22  1  0
 21 23  2  0
 23 18  1  0
 23 24  1  0
M  END
> <Score_ID>
J153

> <ID_class>
J

> <No>
1805

> <Canonical_Smiles>
CN(C)Cc1c(C)c(Cn2cncn2)ccc1n3ncc(C)c3C

$$$$

  SciTegic12192217542D

 24 26  0  0  0  0            999 V2000
    2.5981   -1.5000    0.0000 C   0  0
    1.2990   -0.7500    0.0000 C   0  0
    1.2990    0.7500    0.0000 N   0  0
    0.0000    1.5000    0.0000 C   0  0
   -0.0031    3.0008    0.0000 N   0  0
   -1.3039    3.7494    0.0000 C   0  0
   -1.3070    5.2502    0.0000 C   0  0
   -2.6061    6.0003    0.0000 C   0  0
   -2.6061    7.5003    0.0000 C   0  0
   -1.3071    8.2503    0.0000 C   0  0
   -1.3071    9.7503    0.0000 F   0  0
   -0.0080    7.5003    0.0000 C   0  0
   -0.0080    6.0003    0.0000 C   0  0
   -1.2990    0.7500    0.0000 C   0  0
   -1.2990   -0.7500    0.0000 C   0  0
    0.0000   -1.5000    0.0000 N   0  0
   -2.5988   -1.5004    0.0000 C   0  0
   -2.5983   -3.0004    0.0000 C   0  0
   -1.2996   -2.2502    0.0000 C   0  0
   -3.8990   -0.7508    0.0000 N   0  0
   -5.2499   -1.3728    0.0000 C   0  0
   -6.2543   -0.2587    0.0000 C   0  0
   -5.5052    1.0408    0.0000 C   0  0
   -4.0377    0.7299    0.0000 C   0  0
  1  2  1  0
  2  3  2  0
  3  4  1  0
  4  5  1  0
  5  6  1  0
  6  7  1  0
  7  8  2  0
  8  9  1  0
  9 10  2  0
 10 11  1  0
 10 12  1  0
 12 13  2  0
 13  7  1  0
  4 14  2  0
 14 15  1  0
 15 16  2  0
 16  2  1  0
 15 17  1  0
 17 18  1  0
 17 19  1  0
 17 20  1  0
 20 21  1  0
 21 22  2  0
 22 23  1  0
 23 24  2  0
 24 20  1  0
M  END
> <Score_ID>
J154

> <ID_class>
J

> <No>
1806

> <Canonical_Smiles>
Cc1nc(NCc2ccc(F)cc2)cc(n1)C(C)(C)n3cccc3

$$$$

  SciTegic12192217542D

 24 26  0  0  0  0            999 V2000
    5.6812    1.0554    0.0000 C   0  0
    4.2568    0.5852    0.0000 N   0  0
    3.1377    1.5840    0.0000 C   0  0
    3.9511   -0.8815    0.0000 C   0  0
    2.5987   -1.5004    0.0000 C   0  0
    2.7343   -2.9815    0.0000 C   0  0
    1.6120   -3.9767    0.0000 C   0  0
    4.2010   -3.2956    0.0000 C   0  0
    4.9531   -1.9978    0.0000 N   0  0
    6.4437   -1.8466    0.0000 N   0  0
    7.3221   -3.0635    0.0000 C   0  0
    8.8153   -2.9121    0.0000 C   0  0
    9.5457   -1.6165    0.0000 C   0  0
   11.0124   -1.9307    0.0000 C   0  0
   11.1668   -3.4228    0.0000 O   0  0
    9.7955   -4.0307    0.0000 C   0  0
    9.4725   -5.4955    0.0000 C   0  0
    1.2990   -0.7500    0.0000 C   0  0
    1.2990    0.7500    0.0000 C   0  0
    0.0000    1.5000    0.0000 C   0  0
   -1.2990    0.7500    0.0000 C   0  0
   -2.5981    1.5000    0.0000 F   0  0
   -1.2990   -0.7500    0.0000 C   0  0
    0.0000   -1.5000    0.0000 C   0  0
  1  2  1  0
  2  3  1  0
  2  4  1  0
  4  5  2  0
  5  6  1  0
  6  7  1  0
  6  8  2  0
  8  9  1  0
  9  4  1  0
  9 10  1  0
 10 11  2  0
 11 12  1  0
 12 13  1  0
 13 14  2  0
 14 15  1  0
 15 16  1  0
 16 12  2  0
 16 17  1  0
  5 18  1  0
 18 19  2  0
 19 20  1  0
 20 21  2  0
 21 22  1  0
 21 23  1  0
 23 24  2  0
 24 18  1  0
M  END
> <Score_ID>
J155

> <ID_class>
J

> <No>
1807

> <Canonical_Smiles>
CN(C)c1c(c(C)cn1\N=C\c2ccoc2C)c3ccc(F)cc3

$$$$

  SciTegic12192217542D

 24 26  0  0  0  0            999 V2000
    2.6030   -2.9977    0.0000 C   0  0
    2.6003   -1.4977    0.0000 N   0  0
    3.8990   -0.7455    0.0000 C   0  0
    5.2003   -1.4932    0.0000 C   0  0
    6.4994   -0.7432    0.0000 C   0  0
    7.7985   -1.4932    0.0000 C   0  0
    7.7985   -2.9932    0.0000 C   0  0
    9.0976   -3.7432    0.0000 F   0  0
    6.4995   -3.7432    0.0000 C   0  0
    5.2004   -2.9933    0.0000 C   0  0
    1.2990   -0.7500    0.0000 C   0  0
    1.2990    0.7500    0.0000 C   0  0
    0.0000    1.5000    0.0000 C   0  0
   -1.2990    0.7500    0.0000 C   0  0
   -1.2990   -0.7500    0.0000 C   0  0
   -2.4133   -1.7530    0.0000 C   0  0
   -3.8805   -1.4410    0.0000 N   0  0
   -1.8032   -3.1233    0.0000 C   0  0
   -2.5532   -4.4223    0.0000 C   0  0
   -0.3114   -2.9665    0.0000 N   0  0
    0.0000   -1.5000    0.0000 C   0  0
   -0.0031    3.0008    0.0000 C   0  0
   -1.3032    3.7490    0.0000 O   0  0
    1.2946    3.7531    0.0000 C   0  0
  1  2  1  0
  2  3  1  0
  3  4  1  0
  4  5  2  0
  5  6  1  0
  6  7  2  0
  7  8  1  0
  7  9  1  0
  9 10  2  0
 10  4  1  0
  2 11  1  0
 11 12  2  0
 12 13  1  0
 13 14  2  0
 14 15  1  0
 15 16  1  0
 16 17  1  0
 16 18  2  0
 18 19  1  0
 18 20  1  0
 20 21  1  0
 21 11  1  0
 21 15  2  0
 13 22  1  0
 22 23  2  0
 22 24  1  0
M  END
> <Score_ID>
J156

> <ID_class>
J

> <No>
1808

> <Canonical_Smiles>
CN(Cc1ccc(F)cc1)c2cc(cc3c(N)c(C)[nH]c23)C(=O)C

$$$$

  SciTegic12192217542D

 24 26  0  0  0  0            999 V2000
    2.2711   -8.6748    0.0000 C   0  0
    3.7641   -8.5292    0.0000 C   0  0
    4.7660   -9.6456    0.0000 O   0  0
    6.1373   -9.0377    0.0000 C   0  0
    5.9829   -7.5456    0.0000 C   0  0
    4.5250   -7.2514    0.0000 C   0  0
    3.9196   -5.8781    0.0000 C   0  0
    4.8054   -4.6666    0.0000 N   0  0
    4.2010   -3.2956    0.0000 N   0  0
    2.7343   -2.9815    0.0000 C   0  0
    2.5987   -1.5004    0.0000 C   0  0
    1.2990   -0.7500    0.0000 C   0  0
    1.2990    0.7500    0.0000 C   0  0
    0.0000    1.5000    0.0000 C   0  0
   -1.2990    0.7500    0.0000 C   0  0
   -2.5981    1.5000    0.0000 F   0  0
   -1.2990   -0.7500    0.0000 C   0  0
    0.0000   -1.5000    0.0000 C   0  0
    3.9511   -0.8815    0.0000 C   0  0
    4.2567    0.5852    0.0000 C   0  0
    5.6811    1.0554    0.0000 O   0  0
    3.1377    1.5840    0.0000 N   0  0
    4.9531   -1.9978    0.0000 C   0  0
    6.4451   -1.8434    0.0000 C   0  0
  1  2  1  0
  2  3  1  0
  3  4  1  0
  4  5  2  0
  5  6  1  0
  6  2  2  0
  6  7  1  0
  7  8  2  0
  8  9  1  0
  9 10  1  0
 10 11  2  0
 11 12  1  0
 12 13  2  0
 13 14  1  0
 14 15  2  0
 15 16  1  0
 15 17  1  0
 17 18  2  0
 18 12  1  0
 11 19  1  0
 19 20  1  0
 20 21  2  0
 20 22  1  0
 19 23  2  0
 23  9  1  0
 23 24  1  0
M  END
> <Score_ID>
J157

> <ID_class>
J

> <No>
1809

> <Canonical_Smiles>
Cc1occc1\C=N\n2cc(c3ccc(F)cc3)c(C(=O)N)c2C

$$$$

  SciTegic12192217542D

 18 19  0  0  0  0            999 V2000
    4.2566    0.5871    0.0000 C   0  0
    3.9511   -0.8815    0.0000 C   0  0
    4.9531   -1.9978    0.0000 C   0  0
    4.2010   -3.2956    0.0000 C   0  0
    4.8054   -4.6666    0.0000 C   0  0
    3.9195   -5.8781    0.0000 C   0  0
    4.5246   -7.2506    0.0000 S   0  0
    2.4283   -5.7163    0.0000 N   0  0
    2.7343   -2.9815    0.0000 C   0  0
    2.5987   -1.5004    0.0000 N   0  0
    1.2990   -0.7500    0.0000 C   0  0
    1.2990    0.7500    0.0000 C   0  0
    0.0000    1.5000    0.0000 C   0  0
    0.0000    3.0000    0.0000 N   0  0
   -1.2990    0.7500    0.0000 C   0  0
   -1.2990   -0.7500    0.0000 C   0  0
    0.0000   -1.5000    0.0000 C   0  0
    0.0000   -3.0000    0.0000 Br  0  0
  1  2  1  0
  2  3  2  0
  3  4  1  0
  4  5  1  0
  5  6  1  0
  6  7  2  0
  6  8  1  0
  4  9  2  0
  9 10  1  0
 10  2  1  0
 10 11  1  0
 11 12  2  0
 12 13  1  0
 13 14  1  0
 13 15  2  0
 15 16  1  0
 16 17  2  0
 17 11  1  0
 17 18  1  0
M  END
> <Score_ID>
J158

> <ID_class>
J

> <No>
1810

> <Canonical_Smiles>
Cc1cc(CC(=S)N)cn1c2cc(N)ccc2Br

$$$$

  SciTegic12192217542D

 24 26  0  0  1  0            999 V2000
    2.9218   -6.2315    0.0000 C   0  0
    4.0404   -5.2322    0.0000 C   0  0
    5.5083   -5.5410    0.0000 C   0  0
    6.2556   -4.2405    0.0000 C   0  0
    5.2496   -3.1278    0.0000 C   0  0
    3.8995   -3.7516    0.0000 N   0  0
    2.5997   -3.0012    0.0000 N   0  0
    2.5988   -1.5004    0.0000 C   0  0  2  0  0  0
    3.8976   -0.7500    0.0000 C   0  0
    3.9251   -2.2631    0.0000 C   0  0
    5.2233   -1.5116    0.0000 N   0  0
    1.2990   -0.7500    0.0000 C   0  0
    1.2990    0.7500    0.0000 C   0  0
    0.0000    1.5000    0.0000 C   0  0
   -1.2990    0.7500    0.0000 C   0  0
   -1.2990   -0.7500    0.0000 C   0  0
    0.0000   -1.5000    0.0000 C   0  0
    7.7478   -4.0805    0.0000 C   0  0
    8.7168   -5.2191    0.0000 C   0  0
   10.1920   -4.9474    0.0000 C   0  0
   10.6943   -3.5341    0.0000 C   0  0
   12.1695   -3.2624    0.0000 F   0  0
    9.7215   -2.3923    0.0000 C   0  0
    8.2463   -2.6640    0.0000 C   0  0
  1  2  1  0
  2  3  2  0
  3  4  1  0
  4  5  2  0
  5  6  1  0
  6  2  1  0
  6  7  1  0
  7  8  1  0
  8  9  1  6
  8 10  1  0
 10 11  1  0
  8 12  1  0
 12 13  2  0
 13 14  1  0
 14 15  2  0
 15 16  1  0
 16 17  2  0
 17 12  1  0
  4 18  1  0
 18 19  2  0
 19 20  1  0
 20 21  2  0
 21 22  1  0
 21 23  1  0
 23 24  2  0
 24 18  1  0
M  END
> <Score_ID>
J159

> <ID_class>
J

> <No>
1811

> <Canonical_Smiles>
Cc1cc(cn1N[C@](C)(CN)c2ccccc2)c3ccc(F)cc3

$$$$

  SciTegic12192217542D

 22 23  0  0  0  0            999 V2000
    6.0300    3.0615    0.0000 C   0  0
    5.7295    1.5919    0.0000 N   0  0
    4.3064    1.1178    0.0000 C   0  0
    6.8519    0.5956    0.0000 S   0  0
    7.1532    2.0650    0.0000 O   0  0
    8.2750    1.0697    0.0000 O   0  0
    6.5517   -0.8722    0.0000 C   0  0
    7.5554   -1.9869    0.0000 C   0  0
    9.0472   -1.8301    0.0000 C   0  0
    6.8054   -3.2859    0.0000 N   0  0
    7.4155   -4.6562    0.0000 C   0  0
    5.3382   -2.9741    0.0000 N   0  0
    5.2003   -1.4932    0.0000 C   0  0
    3.8990   -0.7455    0.0000 C   0  0
    2.6003   -1.4977    0.0000 C   0  0
    2.6015   -2.9986    0.0000 C   0  0
    3.9027   -3.7449    0.0000 C   0  0
    3.9070   -5.2449    0.0000 C   0  0
    2.6101   -5.9986    0.0000 C   0  0
    1.3089   -5.2523    0.0000 C   0  0
    1.3046   -3.7523    0.0000 C   0  0
    0.0035   -3.0060    0.0000 F   0  0
  1  2  1  0
  2  3  1  0
  2  4  1  0
  4  5  2  0
  4  6  2  0
  4  7  1  0
  7  8  2  0
  8  9  1  0
  8 10  1  0
 10 11  1  0
 10 12  1  0
 12 13  2  0
 13  7  1  0
 13 14  1  0
 14 15  2  0
 15 16  1  0
 16 17  2  0
 17 18  1  0
 18 19  2  0
 19 20  1  0
 20 21  2  0
 21 16  1  0
 21 22  1  0
M  END
> <Score_ID>
J160

> <ID_class>
J

> <No>
1812

> <Canonical_Smiles>
CN(C)S(=O)(=O)c1c(C)n(C)nc1\C=C/c2ccccc2F

$$$$

  SciTegic12192217542D

 22 23  0  0  0  0            999 V2000
   -1.4257   -7.5461    0.0000 C   0  0
   -0.5398   -6.3356    0.0000 N   0  0
   -1.1456   -4.9634    0.0000 C   0  0
    0.9523   -6.4967    0.0000 S   0  0
    0.0670   -7.7076    0.0000 O   0  0
    1.5581   -7.8690    0.0000 O   0  0
    1.8372   -5.2877    0.0000 C   0  0
    3.3372   -5.2929    0.0000 N   0  0
    3.8056   -3.8679    0.0000 N   0  0
    5.2311   -3.4009    0.0000 C   0  0
    2.5951   -3.0039    0.0000 C   0  0
    2.5973   -1.5031    0.0000 C   0  0
    3.8976   -0.7553    0.0000 C   0  0
    1.2990   -0.7500    0.0000 C   0  0
    1.2990    0.7500    0.0000 C   0  0
    0.0000    1.5000    0.0000 C   0  0
   -1.2990    0.7500    0.0000 C   0  0
   -2.5981    1.5000    0.0000 F   0  0
   -1.2990   -0.7500    0.0000 C   0  0
    0.0000   -1.5000    0.0000 C   0  0
    1.3786   -3.8595    0.0000 C   0  0
   -0.0436   -3.3826    0.0000 C   0  0
  1  2  1  0
  2  3  1  0
  2  4  1  0
  4  5  2  0
  4  6  2  0
  4  7  1  0
  7  8  2  0
  8  9  1  0
  9 10  1  0
  9 11  1  0
 11 12  1  0
 12 13  2  0
 12 14  1  0
 14 15  2  0
 15 16  1  0
 16 17  2  0
 17 18  1  0
 17 19  1  0
 19 20  2  0
 20 14  1  0
 11 21  2  0
 21  7  1  0
 21 22  1  0
M  END
> <Score_ID>
J161

> <ID_class>
J

> <No>
1813

> <Canonical_Smiles>
CN(C)S(=O)(=O)c1nn(C)c(C(=C)c2ccc(F)cc2)c1C

$$$$

  SciTegic12192217542D

 24 26  0  0  0  0            999 V2000
    5.2311   -3.4009    0.0000 C   0  0
    3.8056   -3.8679    0.0000 C   0  0
    3.3372   -5.2929    0.0000 C   0  0
    1.8372   -5.2877    0.0000 C   0  0
    1.3786   -3.8595    0.0000 C   0  0
    2.5951   -3.0039    0.0000 N   0  0
    2.5973   -1.5031    0.0000 N   0  0
    1.2990   -0.7500    0.0000 C   0  0
    1.2990    0.7500    0.0000 C   0  0
    0.0000    1.5000    0.0000 C   0  0
   -1.2990    0.7500    0.0000 C   0  0
   -2.5981    1.5000    0.0000 F   0  0
   -1.2990   -0.7500    0.0000 C   0  0
    0.0000   -1.5000    0.0000 C   0  0
    0.9508   -6.4988    0.0000 C   0  0
    1.4504   -7.9079    0.0000 C   0  0
    0.4759   -9.0482    0.0000 C   0  0
   -0.9989   -8.7745    0.0000 C   0  0
   -1.9734   -9.9149    0.0000 N   0  0
   -1.4993   -7.3604    0.0000 C   0  0
   -0.5248   -6.2201    0.0000 C   0  0
   -2.9743   -7.0835    0.0000 C   0  0
   -3.4727   -5.6687    0.0000 N   0  0
   -3.9508   -8.2222    0.0000 N   0  0
  1  2  1  0
  2  3  2  0
  3  4  1  0
  4  5  2  0
  5  6  1  0
  6  2  1  0
  6  7  1  0
  7  8  1  0
  8  9  2  0
  9 10  1  0
 10 11  2  0
 11 12  1  0
 11 13  1  0
 13 14  2  0
 14  8  1  0
  4 15  1  0
 15 16  2  0
 16 17  1  0
 17 18  2  0
 18 19  1  0
 18 20  1  0
 20 21  2  0
 21 15  1  0
 20 22  1  0
 22 23  2  0
 22 24  1  0
M  END
> <Score_ID>
J162

> <ID_class>
J

> <No>
1814

> <Canonical_Smiles>
Cc1cc(cn1Nc2ccc(F)cc2)c3ccc(N)c(c3)C(=N)N

$$$$

  SciTegic12192217542D

 24 26  0  0  0  0            999 V2000
    7.4155   -4.6562    0.0000 C   0  0
    6.8054   -3.2859    0.0000 C   0  0
    5.3382   -2.9741    0.0000 C   0  0
    5.2003   -1.4932    0.0000 C   0  0
    3.8990   -0.7455    0.0000 C   0  0
    2.6003   -1.4977    0.0000 N   0  0
    1.2990   -0.7500    0.0000 C   0  0
    1.2990    0.7500    0.0000 C   0  0
    0.0000    1.5000    0.0000 C   0  0
   -1.2990    0.7500    0.0000 C   0  0
   -1.2990   -0.7500    0.0000 C   0  0
    0.0000   -1.5000    0.0000 C   0  0
    0.0000   -3.0000    0.0000 F   0  0
   -2.6003    1.4977    0.0000 C   0  0
   -3.8983    0.7459    0.0000 O   0  0
   -2.6030    2.9977    0.0000 N   0  0
    6.5517   -0.8722    0.0000 C   0  0
    7.5554   -1.9869    0.0000 N   0  0
    6.8550    0.5976    0.0000 C   0  0
    5.8200    1.6761    0.0000 C   0  0
    6.2388    3.1164    0.0000 C   0  0
    7.6956    3.4739    0.0000 C   0  0
    8.7335    2.3910    0.0000 C   0  0
    8.3147    0.9506    0.0000 C   0  0
  1  2  1  0
  2  3  2  0
  3  4  1  0
  4  5  1  0
  5  6  1  0
  6  7  1  0
  7  8  2  0
  8  9  1  0
  9 10  2  0
 10 11  1  0
 11 12  2  0
 12  7  1  0
 12 13  1  0
 10 14  1  0
 14 15  2  0
 14 16  1  0
  4 17  2  0
 17 18  1  0
 18  2  1  0
 17 19  1  0
 19 20  2  0
 20 21  1  0
 21 22  2  0
 22 23  1  0
 23 24  2  0
 24 19  1  0
M  END
> <Score_ID>
J163

> <ID_class>
J

> <No>
1815

> <Canonical_Smiles>
Cc1cc(CNc2ccc(cc2F)C(=O)N)c([nH]1)c3ccccc3

$$$$

  SciTegic12192217542D

 24 26  0  0  0  0            999 V2000
   -2.6144    7.4986    0.0000 C   0  0
   -2.6101    5.9986    0.0000 C   0  0
   -1.3089    5.2523    0.0000 C   0  0
   -1.3046    3.7523    0.0000 C   0  0
   -2.6015    2.9986    0.0000 C   0  0
   -2.6003    1.4977    0.0000 N   0  0
   -3.8990    0.7455    0.0000 N   0  0
   -5.2526    1.3618    0.0000 C   0  0
   -5.5608    2.8298    0.0000 C   0  0
   -6.2524    0.2436    0.0000 C   0  0
   -5.4979   -1.0529    0.0000 C   0  0
   -4.0317   -0.7359    0.0000 C   0  0
   -2.9070   -1.7295    0.0000 C   0  0
   -3.3262   -3.1717    0.0000 C   0  0
   -2.2845   -4.2510    0.0000 C   0  0
   -0.8289   -3.8884    0.0000 C   0  0
   -0.4151   -2.4466    0.0000 C   0  0
   -1.4568   -1.3674    0.0000 C   0  0
   -1.0434    0.0745    0.0000 F   0  0
   -7.7433    0.3919    0.0000 C   0  0
   -8.6190   -0.8260    0.0000 O   0  0
   -8.3605    1.7590    0.0000 N   0  0
   -3.9027    3.7449    0.0000 C   0  0
   -3.9070    5.2449    0.0000 C   0  0
  1  2  1  0
  2  3  2  0
  3  4  1  0
  4  5  2  0
  5  6  1  0
  6  7  1  0
  7  8  1  0
  8  9  1  0
  8 10  2  0
 10 11  1  0
 11 12  2  0
 12  7  1  0
 12 13  1  0
 13 14  2  0
 14 15  1  0
 15 16  2  0
 16 17  1  0
 17 18  2  0
 18 13  1  0
 18 19  1  0
 10 20  1  0
 20 21  2  0
 20 22  1  0
  5 23  1  0
 23 24  2  0
 24  2  1  0
M  END
> <Score_ID>
J164

> <ID_class>
J

> <No>
1816

> <Canonical_Smiles>
Cc1ccc(Nn2c(C)c(cc2c3ccccc3F)C(=O)N)cc1

$$$$

  SciTegic12192217542D

 24 26  0  0  0  0            999 V2000
    2.5981   -1.5000    0.0000 C   0  0
    1.2990   -0.7500    0.0000 C   0  0
    1.2990    0.7500    0.0000 C   0  0
    0.0000    1.5000    0.0000 C   0  0
   -1.2990    0.7500    0.0000 C   0  0
   -1.2990   -0.7500    0.0000 C   0  0
   -2.5972   -1.5031    0.0000 N   0  0
   -3.8990   -0.7562    0.0000 N   0  0
   -5.2500   -1.3781    0.0000 C   0  0
   -5.5522   -2.8473    0.0000 C   0  0
   -6.2544   -0.2640    0.0000 C   0  0
   -5.5052    1.0355    0.0000 C   0  0
   -4.0378    0.7246    0.0000 C   0  0
   -2.9172    1.7229    0.0000 C   0  0
   -1.4655    1.3667    0.0000 C   0  0
   -0.4283    2.4503    0.0000 C   0  0
   -0.8480    3.8903    0.0000 C   0  0
   -2.3051    4.2468    0.0000 C   0  0
   -2.7248    5.6869    0.0000 F   0  0
   -3.3423    3.1633    0.0000 C   0  0
   -7.7447   -0.4185    0.0000 C   0  0
   -8.6254    0.7958    0.0000 O   0  0
   -8.3563   -1.7881    0.0000 N   0  0
    0.0000   -1.5000    0.0000 C   0  0
  1  2  1  0
  2  3  2  0
  3  4  1  0
  4  5  2  0
  5  6  1  0
  6  7  1  0
  7  8  1  0
  8  9  1  0
  9 10  1  0
  9 11  2  0
 11 12  1  0
 12 13  2  0
 13  8  1  0
 13 14  1  0
 14 15  2  0
 15 16  1  0
 16 17  2  0
 17 18  1  0
 18 19  1  0
 18 20  2  0
 20 14  1  0
 11 21  1  0
 21 22  2  0
 21 23  1  0
  6 24  2  0
 24  2  1  0
M  END
> <Score_ID>
J165

> <ID_class>
J

> <No>
1817

> <Canonical_Smiles>
Cc1cccc(Nn2c(C)c(cc2c3cccc(F)c3)C(=O)N)c1

$$$$

  SciTegic12192217542D

 24 26  0  0  0  0            999 V2000
    2.4283   -5.7163    0.0000 C   0  0
    3.9196   -5.8781    0.0000 N   0  0
    4.8054   -4.6666    0.0000 C   0  0
    4.2010   -3.2956    0.0000 C   0  0
    2.7343   -2.9815    0.0000 C   0  0
    2.5987   -1.5004    0.0000 C   0  0
    1.2990   -0.7500    0.0000 C   0  0
    1.2990    0.7500    0.0000 C   0  0
    0.0000    1.5000    0.0000 C   0  0
   -1.2990    0.7500    0.0000 C   0  0
   -1.2990   -0.7500    0.0000 C   0  0
    0.0000   -1.5000    0.0000 C   0  0
    3.9511   -0.8815    0.0000 N   0  0
    4.2566    0.5871    0.0000 C   0  0
    4.9531   -1.9978    0.0000 C   0  0
    6.4451   -1.8434    0.0000 C   0  0
    4.5250   -7.2514    0.0000 C   0  0
    6.0166   -7.4107    0.0000 C   0  0
    6.6244   -8.7820    0.0000 C   0  0
    5.7408   -9.9941    0.0000 C   0  0
    4.2493   -9.8349    0.0000 C   0  0
    3.3656  -11.0470    0.0000 F   0  0
    3.6414   -8.4636    0.0000 C   0  0
    2.1499   -8.3044    0.0000 C   0  0
  1  2  1  0
  2  3  1  0
  3  4  1  0
  4  5  1  0
  5  6  2  0
  6  7  1  0
  7  8  2  0
  8  9  1  0
  9 10  2  0
 10 11  1  0
 11 12  2  0
 12  7  1  0
  6 13  1  0
 13 14  1  0
 13 15  1  0
 15  4  2  0
 15 16  1  0
  2 17  1  0
 17 18  2  0
 18 19  1  0
 19 20  2  0
 20 21  1  0
 21 22  1  0
 21 23  2  0
 23 17  1  0
 23 24  1  0
M  END
> <Score_ID>
J166

> <ID_class>
J

> <No>
1818

> <Canonical_Smiles>
CN(Cc1cc(c2ccccc2)n(C)c1C)c3cccc(F)c3C

$$$$

  SciTegic12192217542D

 24 26  0  0  0  0            999 V2000
    3.4276    3.0520    0.0000 C   0  0
    3.1277    1.5822    0.0000 N   0  0
    1.7049    1.1075    0.0000 C   0  0
    4.2506    0.5865    0.0000 C   0  0
    3.9511   -0.8815    0.0000 C   0  0
    4.9531   -1.9978    0.0000 C   0  0
    6.4451   -1.8434    0.0000 C   0  0
    4.2010   -3.2956    0.0000 C   0  0
    2.7343   -2.9815    0.0000 C   0  0
    2.5987   -1.5004    0.0000 N   0  0
    1.2990   -0.7500    0.0000 C   0  0
    1.2990    0.7500    0.0000 C   0  0
    0.0000    1.5000    0.0000 C   0  0
   -1.2990    0.7500    0.0000 C   0  0
   -1.2990   -0.7500    0.0000 C   0  0
   -2.5981   -1.5000    0.0000 C   0  0
    0.0000   -1.5000    0.0000 C   0  0
    4.8092   -4.6676    0.0000 C   0  0
    6.2798   -4.9368    0.0000 C   0  0
    6.7829   -6.3499    0.0000 C   0  0
    5.8106   -7.4921    0.0000 C   0  0
    4.3352   -7.2212    0.0000 C   0  0
    3.3629   -8.3634    0.0000 F   0  0
    3.8322   -5.8080    0.0000 C   0  0
  1  2  1  0
  2  3  1  0
  2  4  1  0
  4  5  1  0
  5  6  2  0
  6  7  1  0
  6  8  1  0
  8  9  2  0
  9 10  1  0
 10  5  1  0
 10 11  1  0
 11 12  2  0
 12 13  1  0
 13 14  2  0
 14 15  1  0
 15 16  1  0
 15 17  2  0
 17 11  1  0
  8 18  1  0
 18 19  2  0
 19 20  1  0
 20 21  2  0
 21 22  1  0
 22 23  1  0
 22 24  2  0
 24 18  1  0
M  END
> <Score_ID>
J167

> <ID_class>
J

> <No>
1819

> <Canonical_Smiles>
CN(C)Cc1c(C)c(cn1c2cccc(C)c2)c3cccc(F)c3

$$$$

  SciTegic12192217542D

 22 24  0  0  0  0            999 V2000
    4.0097   -3.2952    0.0000 C   0  0
    3.1255   -2.0835    0.0000 N   0  0
    3.7332   -0.7121    0.0000 C   0  0
    1.6332   -2.2426    0.0000 C   0  0
    0.7500   -1.0323    0.0000 C   0  0
    1.2135    0.3943    0.0000 C   0  0
    2.6401    0.8578    0.0000 C   0  0
    0.0000    1.2760    0.0000 C   0  0
    0.0000    2.7767    0.0000 C   0  0
    1.2353    3.6188    0.0000 C   0  0
    1.1224    5.1146    0.0000 C   0  0
    2.3613    5.9602    0.0000 F   0  0
   -0.2294    5.7647    0.0000 C   0  0
   -1.4683    4.9191    0.0000 C   0  0
   -2.8201    5.5692    0.0000 F   0  0
   -1.3554    3.4233    0.0000 C   0  0
   -1.2135    0.3943    0.0000 C   0  0
   -2.7115    0.3949    0.0000 S   0  0
   -3.1750   -1.0317    0.0000 C   0  0
   -1.9615   -1.9133    0.0000 C   0  0
   -1.9612   -3.4133    0.0000 O   0  0
   -0.7500   -1.0323    0.0000 N   0  0
  1  2  1  0
  2  3  1  0
  2  4  1  0
  4  5  1  0
  5  6  2  0
  6  7  1  0
  6  8  1  0
  8  9  1  0
  9 10  2  0
 10 11  1  0
 11 12  1  0
 11 13  2  0
 13 14  1  0
 14 15  1  0
 14 16  2  0
 16  9  1  0
  8 17  2  0
 17 18  1  0
 18 19  1  0
 19 20  1  0
 20 21  2  0
 20 22  1  0
 22  5  1  0
 22 17  1  0
M  END
> <Score_ID>
J168

> <ID_class>
J

> <No>
1820

> <Canonical_Smiles>
CN(C)Cc1c(C)c(c2cc(F)cc(F)c2)c3SCC(=O)n13

$$$$

  SciTegic12192217542D

 22 23  0  0  1  0            999 V2000
   -1.3562   -2.5553    0.0000 C   0  0
   -0.4771   -3.7707    0.0000 N   0  0
   -1.0905   -5.1395    0.0000 N   0  0
    1.0157   -3.6164    0.0000 C   0  0  1  0  0  0
    0.4030   -4.9856    0.0000 C   0  0
    1.6281   -2.2462    0.0000 C   0  0
    0.7500   -1.0323    0.0000 N   0  0
    1.2135    0.3943    0.0000 C   0  0
    0.0000    1.2760    0.0000 C   0  0
   -1.2135    0.3943    0.0000 N   0  0
   -0.7500   -1.0323    0.0000 C   0  0
    1.8954   -4.8324    0.0000 C   0  0
    1.4160   -6.2403    0.0000 C   0  0
   -0.0142   -6.6923    0.0000 C   0  0
    2.6277   -7.1245    0.0000 C   0  0
    3.8431   -6.2453    0.0000 S   0  0
    3.3825   -4.8178    0.0000 C   0  0
    4.2563   -3.6008    0.0000 C   0  0
    5.1310   -2.3823    0.0000 N   0  0
    2.6277   -8.6227    0.0000 N   0  3
    3.9263   -9.3735    0.0000 O   0  0
    1.3285   -9.3723    0.0000 O   0  5
  1  2  1  0
  2  3  1  0
  2  4  1  0
  4  5  1  6
  4  6  1  0
  6  7  1  0
  7  8  1  0
  8  9  2  0
  9 10  1  0
 10 11  2  0
 11  7  1  0
  4 12  1  0
 12 13  1  0
 13 14  1  0
 13 15  2  0
 15 16  1  0
 16 17  1  0
 17 12  2  0
 17 18  1  0
 18 19  3  0
 15 20  1  0
 20 21  2  0
 20 22  1  0
M  CHG  2  20   1  22  -1
M  END
> <Score_ID>
J169

> <ID_class>
J

> <No>
1821

> <Canonical_Smiles>
CN(N)[C@@](C)(Cn1ccnc1)c2c(C)c(sc2C#N)[N+](=O)[O-]

$$$$

  SciTegic12192217542D

 24 26  0  0  0  0            999 V2000
    0.9513   -6.4982    0.0000 C   0  0
    1.8372   -5.2877    0.0000 C   0  0
    1.3786   -3.8595    0.0000 C   0  0
    2.5951   -3.0039    0.0000 C   0  0
    2.5973   -1.5031    0.0000 C   0  0
    3.8968   -0.7523    0.0000 N   0  0
    3.8973    0.7477    0.0000 N   0  0
    1.2990   -0.7500    0.0000 C   0  0
    1.2990    0.7500    0.0000 C   0  0
    0.0000    1.5000    0.0000 C   0  0
   -1.2990    0.7500    0.0000 C   0  0
   -1.2990   -0.7500    0.0000 C   0  0
   -2.5981   -1.5000    0.0000 N   0  0
    0.0000   -1.5000    0.0000 C   0  0
    3.8056   -3.8679    0.0000 C   0  0
    5.2311   -3.4009    0.0000 C   0  0
    3.3372   -5.2929    0.0000 N   0  0
    4.2111   -6.5099    0.0000 C   0  0
    3.5939   -7.8779    0.0000 C   0  0
    4.4671   -9.0976    0.0000 C   0  0
    3.8475  -10.4637    0.0000 C   0  0
    2.3546  -10.6101    0.0000 C   0  0
    1.4814   -9.3905    0.0000 C   0  0
    2.1010   -8.0244    0.0000 C   0  0
  1  2  1  0
  2  3  2  0
  3  4  1  0
  4  5  1  0
  5  6  2  3
  6  7  1  0
  5  8  1  0
  8  9  2  0
  9 10  1  0
 10 11  2  0
 11 12  1  0
 12 13  1  0
 12 14  2  0
 14  8  1  0
  4 15  2  0
 15 16  1  0
 15 17  1  0
 17  2  1  0
 17 18  1  0
 18 19  1  0
 19 20  2  0
 20 21  1  0
 21 22  2  0
 22 23  1  0
 23 24  2  0
 24 19  1  0
M  END
> <Score_ID>
J170

> <ID_class>
J

> <No>
1822

> <Canonical_Smiles>
Cc1cc(C(=NN)c2cccc(N)c2)c(C)n1Cc3ccccc3

$$$$

  SciTegic12192217542D

 24 26  0  0  0  0            999 V2000
    2.5981   -1.5000    0.0000 C   0  0
    1.2990   -0.7500    0.0000 C   0  0
    1.2990    0.7500    0.0000 C   0  0
    0.0000    1.5000    0.0000 C   0  0
   -1.2990    0.7500    0.0000 C   0  0
   -1.2990   -0.7500    0.0000 C   0  0
    0.0000   -1.5000    0.0000 C   0  0
   -2.5972   -1.5031    0.0000 N   0  3
   -2.5951   -3.0031    0.0000 O   0  0
   -3.8976   -0.7554    0.0000 O   0  5
    0.0000    3.0008    0.0000 C   0  0
   -1.2149    3.8587    0.0000 C   0  0
   -0.7536    5.2860    0.0000 C   0  0
   -1.6337    6.4985    0.0000 C   0  0
   -1.0235    7.8697    0.0000 N   0  0
   -1.9050    9.0843    0.0000 C   0  0
   -1.2971   10.4556    0.0000 C   0  0
   -2.1807   11.6678    0.0000 C   0  0
   -3.6722   11.5087    0.0000 C   0  0
   -4.2802   10.1374    0.0000 C   0  0
   -3.3966    8.9253    0.0000 C   0  0
    0.7463    5.2884    0.0000 N   0  0
    1.2121    3.8625    0.0000 C   0  0
    2.6367    3.3928    0.0000 C   0  0
  1  2  1  0
  2  3  2  0
  3  4  1  0
  4  5  2  0
  5  6  1  0
  6  7  2  0
  7  2  1  0
  6  8  1  0
  8  9  2  0
  8 10  1  0
  4 11  1  0
 11 12  1  0
 12 13  2  0
 13 14  1  0
 14 15  2  0
 15 16  1  0
 16 17  2  0
 17 18  1  0
 18 19  2  0
 19 20  1  0
 20 21  2  0
 21 16  1  0
 13 22  1  0
 22 23  1  0
 23 11  2  0
 23 24  1  0
M  CHG  2   8   1  10  -1
M  END
> <Score_ID>
J171

> <ID_class>
J

> <No>
1823

> <Canonical_Smiles>
Cc1cc(cc(c1)[N+](=O)[O-])c2cc(\C=N\c3ccccc3)[nH]c2C

$$$$

  SciTegic12192217542D

 22 24  0  0  0  0            999 V2000
    1.6120   -3.9767    0.0000 C   0  0
    2.7343   -2.9815    0.0000 C   0  0
    4.2010   -3.2956    0.0000 C   0  0
    4.8111   -4.6641    0.0000 C   0  0
    6.3037   -4.8211    0.0000 N   0  0
    6.9144   -6.1912    0.0000 O   0  0
    4.9531   -1.9978    0.0000 S   0  0
    3.9511   -0.8815    0.0000 C   0  0
    4.2567    0.5878    0.0000 C   0  0
    3.3397    1.7523    0.0000 C   0  0
    4.1890    2.9887    0.0000 N   0  0
    5.6273    2.5630    0.0000 C   0  0
    5.6669    1.0635    0.0000 N   0  0
    2.5987   -1.5004    0.0000 C   0  0
    1.2990   -0.7500    0.0000 C   0  0
    1.2990    0.7500    0.0000 C   0  0
    0.0000    1.5000    0.0000 C   0  0
   -1.2990    0.7500    0.0000 C   0  0
   -2.5981    1.5000    0.0000 F   0  0
   -1.2990   -0.7500    0.0000 C   0  0
   -2.5981   -1.5000    0.0000 F   0  0
    0.0000   -1.5000    0.0000 C   0  0
  1  2  1  0
  2  3  2  0
  3  4  1  0
  4  5  2  0
  5  6  1  0
  3  7  1  0
  7  8  1  0
  8  9  1  0
  9 10  2  0
 10 11  1  0
 11 12  2  0
 12 13  1  0
 13  9  1  0
  8 14  2  0
 14  2  1  0
 14 15  1  0
 15 16  2  0
 16 17  1  0
 17 18  2  0
 18 19  1  0
 18 20  1  0
 20 21  1  0
 20 22  2  0
 22 15  1  0
M  END
> <Score_ID>
J172

> <ID_class>
J

> <No>
1824

> <Canonical_Smiles>
Cc1c(\C=N\O)sc(c2cnc[nH]2)c1c3ccc(F)c(F)c3

$$$$

  SciTegic12192217542D

 22 24  0  0  0  0            999 V2000
    1.6317   -2.2458    0.0000 C   0  0
    0.7500   -1.0323    0.0000 C   0  0
    1.2135    0.3943    0.0000 C   0  0
    2.6408    0.8581    0.0000 C   0  0
    2.8369    2.3469    0.0000 C   0  0
    4.2246    2.9165    0.0000 C   0  0
    5.4117    1.9995    0.0000 C   0  0
    5.2111    0.5130    0.0000 C   0  0
    3.8234   -0.0566    0.0000 C   0  0
    3.6224   -1.5430    0.0000 F   0  0
    0.0000    1.2760    0.0000 C   0  0
   -0.4623    2.7009    0.0000 C   0  0
   -1.9623    2.7008    0.0000 C   0  0
   -2.4258    1.2743    0.0000 S   0  0
   -1.2135    0.3943    0.0000 C   0  0
   -0.7500   -1.0323    0.0000 N   0  0
   -1.6281   -2.2462    0.0000 C   0  0
   -1.0157   -3.6164    0.0000 C   0  0
    0.4764   -3.7706    0.0000 C   0  0
   -0.1360   -2.4015    0.0000 C   0  0
   -1.8953   -4.8324    0.0000 N   0  0
   -1.2833   -6.2019    0.0000 O   0  0
  1  2  1  0
  2  3  2  0
  3  4  1  0
  4  5  2  0
  5  6  1  0
  6  7  2  0
  7  8  1  0
  8  9  2  0
  9  4  1  0
  9 10  1  0
  3 11  1  0
 11 12  1  0
 12 13  2  0
 13 14  1  0
 14 15  1  0
 15 11  2  0
 15 16  1  0
 16  2  1  0
 16 17  1  0
 17 18  1  0
 18 19  1  0
 18 20  1  0
 18 21  1  0
 21 22  1  0
M  END
> <Score_ID>
J173

> <ID_class>
J

> <No>
1825

> <Canonical_Smiles>
Cc1c(c2ccccc2F)c3ccsc3n1CC(C)(C)NO

$$$$

  SciTegic12192217542D

 23 25  0  0  0  0            999 V2000
    1.9028   -4.8294    0.0000 C   0  0
    1.0211   -3.6158    0.0000 N   0  0
   -0.4706   -3.7731    0.0000 C   0  0
    1.6307   -2.2444    0.0000 C   0  0
    2.5129   -3.4575    0.0000 C   0  0
    3.1224   -2.0871    0.0000 C   0  0
    0.7500   -1.0323    0.0000 C   0  0
    1.2135    0.3943    0.0000 N   0  0
    0.0000    1.2760    0.0000 C   0  0
    0.0000    2.7760    0.0000 C   0  0
   -1.2135    0.3943    0.0000 C   0  0
   -2.7115    0.3949    0.0000 C   0  0
   -3.1750   -1.0317    0.0000 C   0  0
   -1.9615   -1.9133    0.0000 N   0  0
   -1.9639   -3.4116    0.0000 C   0  0
   -3.2643   -4.1608    0.0000 C   0  0
   -3.2689   -5.6608    0.0000 C   0  0
   -4.5702   -6.4069    0.0000 C   0  0
   -5.8670   -5.6531    0.0000 C   0  0
   -7.1682   -6.3992    0.0000 F   0  0
   -5.8625   -4.1531    0.0000 C   0  0
   -4.5612   -3.4069    0.0000 C   0  0
   -0.7500   -1.0323    0.0000 N   0  0
  1  2  1  0
  2  3  1  0
  2  4  1  0
  4  5  1  0
  4  6  1  0
  4  7  1  0
  7  8  2  0
  8  9  1  0
  9 10  1  0
  9 11  2  0
 11 12  1  0
 12 13  2  0
 13 14  1  0
 14 15  1  0
 15 16  1  0
 16 17  2  0
 17 18  1  0
 18 19  2  0
 19 20  1  0
 19 21  1  0
 21 22  2  0
 22 16  1  0
 14 23  1  0
 23  7  1  0
 23 11  1  0
M  END
> <Score_ID>
J174

> <ID_class>
J

> <No>
1826

> <Canonical_Smiles>
CN(C)C(C)(C)c1nc(C)c2ccn(Cc3ccc(F)cc3)n12

$$$$

  SciTegic12192217542D

 23 25  0  0  1  0            999 V2000
    6.4451   -1.8434    0.0000 C   0  0
    4.9531   -1.9978    0.0000 C   0  0
    3.9511   -0.8815    0.0000 C   0  0
    2.5987   -1.5004    0.0000 C   0  0
    2.7343   -2.9815    0.0000 N   0  0
    4.2010   -3.2956    0.0000 N   0  0
    4.8054   -4.6666    0.0000 N   0  0
    3.9195   -5.8781    0.0000 C   0  0  2  0  0  0
    2.4283   -5.7163    0.0000 C   0  0
    3.2999   -4.4792    0.0000 C   0  0
    1.8086   -4.3186    0.0000 N   0  0
    4.5250   -7.2514    0.0000 C   0  0
    3.7613   -8.5276    0.0000 C   0  0
    4.7610   -9.6460    0.0000 C   0  0
    6.1335   -9.0409    0.0000 C   0  0
    5.9822   -7.5486    0.0000 N   0  0
    1.2990   -0.7500    0.0000 C   0  0
    1.2990    0.7500    0.0000 C   0  0
    0.0000    1.5000    0.0000 C   0  0
   -1.2990    0.7500    0.0000 C   0  0
   -2.5981    1.5000    0.0000 F   0  0
   -1.2990   -0.7500    0.0000 C   0  0
    0.0000   -1.5000    0.0000 C   0  0
  1  2  1  0
  2  3  2  0
  3  4  1  0
  4  5  2  0
  5  6  1  0
  6  2  1  0
  6  7  1  0
  7  8  1  0
  8  9  1  6
  8 10  1  0
 10 11  1  0
  8 12  1  0
 12 13  2  0
 13 14  1  0
 14 15  2  0
 15 16  1  0
 16 12  1  0
  4 17  1  0
 17 18  2  0
 18 19  1  0
 19 20  2  0
 20 21  1  0
 20 22  1  0
 22 23  2  0
 23 17  1  0
M  END
> <Score_ID>
J175

> <ID_class>
J

> <No>
1827

> <Canonical_Smiles>
Cc1cc(nn1N[C@](C)(CN)c2ccc[nH]2)c3ccc(F)cc3

$$$$

  SciTegic12192217542D

 22 24  0  0  0  0            999 V2000
    2.5981   -1.5000    0.0000 C   0  0
    1.2990   -0.7500    0.0000 C   0  0
    1.2990    0.7500    0.0000 C   0  0
    0.0000    1.5000    0.0000 C   0  0
   -1.2990    0.7500    0.0000 C   0  0
   -2.6003    1.4977    0.0000 C   0  0
   -3.8990    0.7455    0.0000 N   0  0
   -4.0317   -0.7359    0.0000 N   0  0
   -5.4979   -1.0529    0.0000 C   0  0
   -6.1032   -2.4253    0.0000 N   0  0
   -6.2524    0.2436    0.0000 C   0  0
   -7.7447    0.3952    0.0000 C   0  0
   -5.2526    1.3618    0.0000 C   0  0
   -5.5610    2.8305    0.0000 C   0  0
   -4.5297    3.9126    0.0000 C   0  0
   -4.9536    5.3514    0.0000 C   0  0
   -6.4116    5.7038    0.0000 C   0  0
   -6.8355    7.1427    0.0000 Cl  0  0
   -7.4458    4.6173    0.0000 C   0  0
   -7.0219    3.1784    0.0000 C   0  0
   -1.2990   -0.7500    0.0000 C   0  0
    0.0000   -1.5000    0.0000 C   0  0
  1  2  1  0
  2  3  2  0
  3  4  1  0
  4  5  2  0
  5  6  1  0
  6  7  1  0
  7  8  1  0
  8  9  2  0
  9 10  1  0
  9 11  1  0
 11 12  1  0
 11 13  2  0
 13  7  1  0
 13 14  1  0
 14 15  2  0
 15 16  1  0
 16 17  2  0
 17 18  1  0
 17 19  1  0
 19 20  2  0
 20 14  1  0
  5 21  1  0
 21 22  2  0
 22  2  1  0
M  END
> <Score_ID>
J176

> <ID_class>
J

> <No>
1828

> <Canonical_Smiles>
Cc1ccc(Cn2nc(N)c(C)c2c3ccc(Cl)cc3)cc1

$$$$

  SciTegic12192217542D

 23 25  0  0  0  0            999 V2000
    4.8089   -4.6669    0.0000 C   0  0
    4.2010   -3.2956    0.0000 C   0  0
    2.7343   -2.9815    0.0000 C   0  0
    2.5987   -1.5004    0.0000 C   0  0
    1.2990   -0.7500    0.0000 C   0  0
    1.2990    0.7500    0.0000 C   0  0
    0.0000    1.5000    0.0000 C   0  0
   -1.2990    0.7500    0.0000 C   0  0
   -1.2990   -0.7500    0.0000 C   0  0
   -2.5981   -1.5000    0.0000 F   0  0
    0.0000   -1.5000    0.0000 C   0  0
    3.9511   -0.8815    0.0000 N   0  0
    4.2567    0.5852    0.0000 C   0  0
    5.6819    1.0557    0.0000 C   0  0
    6.1210    2.4766    0.0000 C   0  0
    7.6210    2.4805    0.0000 O   0  0
    8.0882    1.0551    0.0000 C   0  0
    6.8770    0.1703    0.0000 C   0  0
    4.9531   -1.9978    0.0000 C   0  0
    6.4437   -1.8466    0.0000 C   0  0
    7.3222   -3.0635    0.0000 N   0  0
    6.7088   -4.4323    0.0000 N   0  0
    7.0583   -0.4784    0.0000 N   0  0
  1  2  1  0
  2  3  1  0
  3  4  2  0
  4  5  1  0
  5  6  2  0
  6  7  1  0
  7  8  2  0
  8  9  1  0
  9 10  1  0
  9 11  2  0
 11  5  1  0
  4 12  1  0
 12 13  1  0
 13 14  1  0
 14 15  2  0
 15 16  1  0
 16 17  1  0
 17 18  2  0
 18 14  1  0
 12 19  1  0
 19  2  2  0
 19 20  1  0
 20 21  2  0
 21 22  1  0
 20 23  1  0
M  END
> <Score_ID>
J177

> <ID_class>
J

> <No>
1829

> <Canonical_Smiles>
Cc1cc(c2cccc(F)c2)n(Cc3cocc3)c1\C(=N/N)\N

$$$$

  SciTegic12192217542D

 23 25  0  0  0  0            999 V2000
    2.5981   -1.5000    0.0000 C   0  0
    1.2990   -0.7500    0.0000 C   0  0
    1.2990    0.7500    0.0000 C   0  0
    0.0000    1.5000    0.0000 C   0  0
   -1.2990    0.7500    0.0000 C   0  0
   -1.2990   -0.7500    0.0000 C   0  0
    0.0000   -1.5000    0.0000 C   0  0
   -2.5987    1.5004    0.0000 N   0  0
   -3.9492    0.8772    0.0000 C   0  0
   -4.9546    1.9903    0.0000 C   0  0
   -6.4441    1.8282    0.0000 C   0  0
   -7.0500    0.4561    0.0000 N   0  0
   -4.2067    3.2905    0.0000 C   0  0
   -4.8154    4.6596    0.0000 C   0  0
   -3.9339    5.8732    0.0000 N   0  0
   -2.7390    2.9810    0.0000 C   0  0
   -1.6193    3.9803    0.0000 C   0  0
   -0.1673    3.6256    0.0000 C   0  0
    0.8689    4.7101    0.0000 C   0  0
    0.4478    6.1498    0.0000 C   0  0
    1.4840    7.2343    0.0000 F   0  0
   -1.0096    6.5049    0.0000 C   0  0
   -2.0458    5.4204    0.0000 C   0  0
  1  2  1  0
  2  3  2  0
  3  4  1  0
  4  5  2  0
  5  6  1  0
  6  7  2  0
  7  2  1  0
  5  8  1  0
  8  9  1  0
  9 10  2  0
 10 11  1  0
 11 12  1  0
 10 13  1  0
 13 14  1  0
 14 15  1  0
 13 16  2  0
 16  8  1  0
 16 17  1  0
 17 18  2  0
 18 19  1  0
 19 20  2  0
 20 21  1  0
 20 22  1  0
 22 23  2  0
 23 17  1  0
M  END
> <Score_ID>
J178

> <ID_class>
J

> <No>
1830

> <Canonical_Smiles>
Cc1ccc(cc1)n2cc(CN)c(CN)c2c3ccc(F)cc3

$$$$

  SciTegic12192217542D

 23 25  0  0  0  0            999 V2000
    5.9477   -1.8948    0.0000 C   0  0
    4.9531   -1.9978    0.0000 C   0  0
    4.2010   -3.2956    0.0000 C   0  0
    2.7343   -2.9815    0.0000 C   0  0
    2.5987   -1.5004    0.0000 C   0  0
    1.2990   -0.7500    0.0000 C   0  0
    1.2990    0.7500    0.0000 C   0  0
    0.0000    1.5000    0.0000 C   0  0
   -1.2990    0.7500    0.0000 C   0  0
   -2.5981    1.5000    0.0000 F   0  0
   -1.2990   -0.7500    0.0000 C   0  0
    0.0000   -1.5000    0.0000 C   0  0
    3.9511   -0.8815    0.0000 N   0  0
    4.2567    0.5852    0.0000 N   0  0
    5.6819    1.0557    0.0000 C   0  0
    6.8026    0.0574    0.0000 C   0  0
    8.2525    0.3886    0.0000 O   0  0
    9.0067   -0.9080    0.0000 C   0  0
    8.0067   -2.0260    0.0000 C   0  0
    6.6344   -1.4204    0.0000 C   0  0
    4.8054   -4.6666    0.0000 C   0  0
    3.9200   -5.8774    0.0000 O   0  0
    6.2966   -4.8284    0.0000 N   0  0
  1  2  1  0
  2  3  2  0
  3  4  1  0
  4  5  2  0
  5  6  1  0
  6  7  2  0
  7  8  1  0
  8  9  2  0
  9 10  1  0
  9 11  1  0
 11 12  2  0
 12  6  1  0
  5 13  1  0
 13  2  1  0
 13 14  1  0
 14 15  2  0
 15 16  1  0
 16 17  1  0
 17 18  1  0
 18 19  2  0
 19 20  1  0
 20 16  2  0
  3 21  1  0
 21 22  2  0
 21 23  1  0
M  END
> <Score_ID>
J179

> <ID_class>
J

> <No>
1831

> <Canonical_Smiles>
Cc1c(cc(c2ccc(F)cc2)n1\N=C/c3occc3)C(=O)N

$$$$

  SciTegic12192217542D

 21 22  0  0  0  0            999 V2000
    8.8145   -2.9122    0.0000 C   0  0
    7.3221   -3.0635    0.0000 N   0  0
    6.7075   -4.4318    0.0000 C   0  0
    6.4437   -1.8466    0.0000 C   0  0
    4.9531   -1.9978    0.0000 C   0  0
    3.9511   -0.8815    0.0000 C   0  0
    4.2566    0.5871    0.0000 C   0  0
    2.5987   -1.5004    0.0000 C   0  0
    2.7343   -2.9815    0.0000 N   0  0
    4.2010   -3.2956    0.0000 C   0  0
    4.8082   -4.6653    0.0000 S   0  0
    3.9254   -5.8780    0.0000 O   0  0
    6.2998   -4.8240    0.0000 O   0  0
    5.4168   -6.0363    0.0000 C   0  0
    1.2990   -0.7500    0.0000 C   0  0
    1.2990    0.7500    0.0000 C   0  0
    0.0000    1.5000    0.0000 C   0  0
   -1.2990    0.7500    0.0000 C   0  0
   -2.5981    1.5000    0.0000 F   0  0
   -1.2990   -0.7500    0.0000 C   0  0
    0.0000   -1.5000    0.0000 C   0  0
  1  2  1  0
  2  3  1  0
  2  4  1  0
  4  5  1  0
  5  6  1  0
  6  7  1  0
  6  8  2  0
  8  9  1  0
  9 10  1  0
 10  5  2  0
 10 11  1  0
 11 12  2  0
 11 13  2  0
 11 14  1  0
  8 15  1  0
 15 16  2  0
 16 17  1  0
 17 18  2  0
 18 19  1  0
 18 20  1  0
 20 21  2  0
 21 15  1  0
M  END
> <Score_ID>
J180

> <ID_class>
J

> <No>
1832

> <Canonical_Smiles>
CN(C)Cc1c(C)c([nH]c1S(=O)(=O)C)c2ccc(F)cc2

$$$$

  SciTegic12192217542D

 21 22  0  0  0  0            999 V2000
    4.5246   -7.2506    0.0000 C   0  0
    3.9196   -5.8781    0.0000 N   0  0
    2.4283   -5.7163    0.0000 C   0  0
    4.8054   -4.6666    0.0000 C   0  0
    4.2010   -3.2956    0.0000 C   0  0
    2.7343   -2.9815    0.0000 N   0  0
    2.5987   -1.5004    0.0000 C   0  0
    3.9511   -0.8815    0.0000 C   0  0
    4.2566    0.5871    0.0000 C   0  0
    4.9531   -1.9978    0.0000 C   0  0
    6.4433   -1.8435    0.0000 S   0  0
    7.0565   -0.4746    0.0000 O   0  0
    7.3227   -3.0587    0.0000 O   0  0
    7.9354   -1.6898    0.0000 C   0  0
    1.2990   -0.7500    0.0000 C   0  0
    1.2990    0.7500    0.0000 C   0  0
    0.0000    1.5000    0.0000 C   0  0
   -1.2990    0.7500    0.0000 C   0  0
   -2.5981    1.5000    0.0000 F   0  0
   -1.2990   -0.7500    0.0000 C   0  0
    0.0000   -1.5000    0.0000 C   0  0
  1  2  1  0
  2  3  1  0
  2  4  1  0
  4  5  1  0
  5  6  1  0
  6  7  1  0
  7  8  2  0
  8  9  1  0
  8 10  1  0
 10  5  2  0
 10 11  1  0
 11 12  2  0
 11 13  2  0
 11 14  1  0
  7 15  1  0
 15 16  2  0
 16 17  1  0
 17 18  2  0
 18 19  1  0
 18 20  1  0
 20 21  2  0
 21 15  1  0
M  END
> <Score_ID>
J181

> <ID_class>
J

> <No>
1833

> <Canonical_Smiles>
CN(C)Cc1[nH]c(c(C)c1S(=O)(=O)C)c2ccc(F)cc2

$$$$

  SciTegic12192217542D

 22 23  0  0  0  0            999 V2000
    3.8964    0.7545    0.0000 C   0  0
    3.8990   -0.7455    0.0000 N   0  0
    2.6003   -1.4977    0.0000 C   0  0
    1.2990   -0.7500    0.0000 C   0  0
    1.2990    0.7500    0.0000 C   0  0
    0.0000    1.5000    0.0000 C   0  0
    0.0031    3.0008    0.0000 C   0  0
    1.3039    3.7494    0.0000 N   0  0
    1.3070    5.2494    0.0000 C   0  0
    2.6016    2.9971    0.0000 C   0  0
   -1.2990    0.7500    0.0000 C   0  0
   -2.5981    1.5000    0.0000 F   0  0
   -1.2990   -0.7500    0.0000 C   0  0
   -2.5981   -1.5000    0.0000 C   0  0
    0.0000   -1.5000    0.0000 C   0  0
    0.0000   -3.0000    0.0000 F   0  0
    5.2003   -1.4932    0.0000 C   0  0
    6.4990   -0.7409    0.0000 C   0  0
    7.8525   -1.3573    0.0000 N   0  0
    8.8523   -0.2391    0.0000 C   0  0
    8.0978    1.0574    0.0000 C   0  0
    6.6317    0.7404    0.0000 N   0  0
  1  2  1  0
  2  3  1  0
  3  4  1  0
  4  5  2  0
  5  6  1  0
  6  7  1  0
  7  8  1  0
  8  9  1  0
  8 10  1  0
  6 11  2  0
 11 12  1  0
 11 13  1  0
 13 14  1  0
 13 15  2  0
 15  4  1  0
 15 16  1  0
  2 17  1  0
 17 18  1  0
 18 19  2  0
 19 20  1  0
 20 21  2  0
 21 22  1  0
 22 18  1  0
M  END
> <Score_ID>
J182

> <ID_class>
J

> <No>
1834

> <Canonical_Smiles>
CN(C)Cc1cc(CN(C)Cc2ncc[nH]2)c(F)c(C)c1F

$$$$

  SciTegic12192217542D

 23 25  0  0  0  0            999 V2000
    4.2146   -6.5095    0.0000 C   0  0
    3.3372   -5.2929    0.0000 C   0  0
    3.8056   -3.8679    0.0000 C   0  0
    2.5951   -3.0039    0.0000 C   0  0
    2.5973   -1.5031    0.0000 C   0  0
    1.2990   -0.7500    0.0000 C   0  0
    1.2990    0.7500    0.0000 C   0  0
    0.0000    1.5000    0.0000 C   0  0
   -1.2990    0.7500    0.0000 C   0  0
   -1.2990   -0.7500    0.0000 C   0  0
   -2.5981   -1.5000    0.0000 N   0  0
    0.0000   -1.5000    0.0000 C   0  0
    1.3786   -3.8595    0.0000 C   0  0
   -0.0436   -3.3826    0.0000 N   0  0
    1.8372   -5.2877    0.0000 N   0  0
    0.9513   -6.4982    0.0000 N   0  0
    5.2318   -3.4007    0.0000 C   0  0
    5.6533   -1.9665    0.0000 C   0  0
    7.1113   -1.6142    0.0000 C   0  0
    8.1455   -2.7007    0.0000 C   0  0
    7.7216   -4.1395    0.0000 C   0  0
    8.7558   -5.2260    0.0000 F   0  0
    6.2636   -4.4919    0.0000 C   0  0
  1  2  1  0
  2  3  2  0
  3  4  1  0
  4  5  1  0
  5  6  1  0
  6  7  2  0
  7  8  1  0
  8  9  2  0
  9 10  1  0
 10 11  1  0
 10 12  2  0
 12  6  1  0
  4 13  2  0
 13 14  1  0
 13 15  1  0
 15  2  1  0
 15 16  1  0
  3 17  1  0
 17 18  2  0
 18 19  1  0
 19 20  2  0
 20 21  1  0
 21 22  1  0
 21 23  2  0
 23 17  1  0
M  END
> <Score_ID>
J183

> <ID_class>
J

> <No>
1835

> <Canonical_Smiles>
Cc1c(c(Cc2cccc(N)c2)c(N)n1N)c3cccc(F)c3

$$$$

  SciTegic12192217542D

 23 25  0  0  0  0            999 V2000
    3.8983   -0.7459    0.0000 C   0  0
    2.6003   -1.4977    0.0000 N   0  0
    2.6030   -2.9977    0.0000 C   0  0
    1.2990   -0.7500    0.0000 C   0  0
    1.2990    0.7500    0.0000 C   0  0
    0.0000    1.5000    0.0000 C   0  0
   -1.2990    0.7500    0.0000 C   0  0
   -1.2990   -0.7500    0.0000 C   0  0
    0.0000   -1.5000    0.0000 C   0  0
    0.0000   -3.0008    0.0000 C   0  0
    1.2149   -3.8587    0.0000 C   0  0
    0.7536   -5.2860    0.0000 N   0  0
    1.6372   -6.4981    0.0000 N   0  0
   -0.7464   -5.2884    0.0000 C   0  0
   -1.6261   -6.5033    0.0000 N   0  0
   -1.2122   -3.8625    0.0000 C   0  0
   -2.6374   -3.3926    0.0000 C   0  0
   -3.0562   -1.9577    0.0000 C   0  0
   -4.5135   -1.6025    0.0000 C   0  0
   -5.5498   -2.6871    0.0000 C   0  0
   -5.1286   -4.1267    0.0000 C   0  0
   -6.1649   -5.2113    0.0000 F   0  0
   -3.6713   -4.4819    0.0000 C   0  0
  1  2  1  0
  2  3  1  0
  2  4  1  0
  4  5  2  0
  5  6  1  0
  6  7  2  0
  7  8  1  0
  8  9  2  0
  9  4  1  0
  9 10  1  0
 10 11  2  0
 11 12  1  0
 12 13  1  0
 12 14  1  0
 14 15  1  0
 14 16  2  0
 16 10  1  0
 16 17  1  0
 17 18  2  0
 18 19  1  0
 19 20  2  0
 20 21  1  0
 21 22  1  0
 21 23  2  0
 23 17  1  0
M  END
> <Score_ID>
J184

> <ID_class>
J

> <No>
1836

> <Canonical_Smiles>
CN(C)c1ccccc1c2cn(N)c(N)c2c3cccc(F)c3

$$$$

  SciTegic12192217542D

 23 25  0  0  0  0            999 V2000
    6.8968    0.2048    0.0000 C   0  0
    5.6669    1.0635    0.0000 C   0  0
    5.6273    2.5630    0.0000 N   0  0
    4.1890    2.9887    0.0000 C   0  0
    3.3397    1.7523    0.0000 N   0  0
    1.8405    1.7033    0.0000 C   0  0
    4.2568    0.5878    0.0000 C   0  0
    3.9511   -0.8815    0.0000 C   0  0
    2.5987   -1.5004    0.0000 C   0  0
    2.7343   -2.9815    0.0000 C   0  0
    4.2010   -3.2956    0.0000 C   0  0
    4.8054   -4.6666    0.0000 C   0  0
    6.2966   -4.8284    0.0000 O   0  0
    3.9195   -5.8781    0.0000 N   0  0
    4.5246   -7.2506    0.0000 O   0  0
    4.9531   -1.9978    0.0000 N   0  0
    6.4451   -1.8434    0.0000 C   0  0
    1.2990   -0.7500    0.0000 C   0  0
    1.2990    0.7500    0.0000 C   0  0
    0.0000    1.5000    0.0000 C   0  0
   -1.2990    0.7500    0.0000 C   0  0
   -1.2990   -0.7500    0.0000 C   0  0
    0.0000   -1.5000    0.0000 C   0  0
  1  2  1  0
  2  3  1  0
  3  4  2  0
  4  5  1  0
  5  6  1  0
  5  7  1  0
  7  2  2  0
  7  8  1  0
  8  9  2  0
  9 10  1  0
 10 11  2  0
 11 12  1  0
 12 13  2  0
 12 14  1  0
 14 15  1  0
 11 16  1  0
 16  8  1  0
 16 17  1  0
  9 18  1  0
 18 19  2  0
 19 20  1  0
 20 21  2  0
 21 22  1  0
 22 23  2  0
 23 18  1  0
M  END
> <Score_ID>
J185

> <ID_class>
J

> <No>
1837

> <Canonical_Smiles>
Cc1ncn(C)c1c2c(cc(C(=O)NO)n2C)c3ccccc3

$$$$

  SciTegic12192217542D

 22 23  0  0  0  0            999 V2000
    2.5981   -1.5000    0.0000 C   0  0
    1.2990   -0.7500    0.0000 C   0  0
    1.2990    0.7500    0.0000 C   0  0
    0.0000    1.5000    0.0000 C   0  0
    0.0000    3.0000    0.0000 C   0  0
   -1.2990    0.7500    0.0000 C   0  0
   -1.2990   -0.7500    0.0000 C   0  0
   -2.5972   -1.5031    0.0000 C   0  0
   -2.5951   -3.0039    0.0000 N   0  0
   -1.2948   -3.7533    0.0000 N   0  0
   -1.2926   -5.2541    0.0000 C   0  0
   -2.5067   -6.1132    0.0000 N   0  0
   -2.0441   -7.5401    0.0000 C   0  0
   -2.9265   -8.7530    0.0000 C   0  0
   -0.5441   -7.5410    0.0000 N   0  0
    0.3369   -8.7551    0.0000 C   0  0
   -0.0796   -6.1147    0.0000 C   0  0
    1.3419   -5.6417    0.0000 C   0  0
    2.4643   -6.6368    0.0000 F   0  0
    1.6429   -4.1722    0.0000 F   0  0
    2.7649   -5.1674    0.0000 F   0  0
    0.0000   -1.5000    0.0000 C   0  0
  1  2  1  0
  2  3  2  0
  3  4  1  0
  4  5  1  0
  4  6  2  0
  6  7  1  0
  7  8  1  0
  8  9  2  0
  9 10  1  0
 10 11  1  0
 11 12  1  0
 12 13  2  0
 13 14  1  0
 13 15  1  0
 15 16  1  0
 15 17  1  0
 17 11  2  0
 17 18  1  0
 18 19  1  0
 18 20  1  0
 18 21  1  0
  7 22  2  0
 22  2  1  0
M  END
> <Score_ID>
J186

> <ID_class>
J

> <No>
1838

> <Canonical_Smiles>
Cc1cc(C)cc(\C=N/Nc2nc(C)n(C)c2C(F)(F)F)c1

$$$$

  SciTegic12192217542D

 21 22  0  0  0  0            999 V2000
    6.7075   -4.4318    0.0000 C   0  0
    7.3221   -3.0635    0.0000 C   0  0
    8.8145   -2.9122    0.0000 N   0  0
    6.4437   -1.8466    0.0000 N   0  0
    4.9531   -1.9978    0.0000 N   0  0
    3.9511   -0.8815    0.0000 C   0  0
    4.2566    0.5871    0.0000 C   0  0
    2.5987   -1.5004    0.0000 C   0  0
    2.7343   -2.9815    0.0000 C   0  0
    4.2010   -3.2956    0.0000 C   0  0
    4.8054   -4.6666    0.0000 C   0  0
    3.9200   -5.8774    0.0000 O   0  0
    6.2966   -4.8284    0.0000 N   0  0
    1.2990   -0.7500    0.0000 C   0  0
    1.2990    0.7500    0.0000 C   0  0
    0.0000    1.5000    0.0000 C   0  0
   -1.2990    0.7500    0.0000 C   0  0
   -2.5981    1.5000    0.0000 F   0  0
   -1.2990   -0.7500    0.0000 C   0  0
    0.0000   -1.5000    0.0000 C   0  0
    0.0000   -3.0000    0.0000 Cl  0  0
  1  2  1  0
  2  3  2  0
  2  4  1  0
  4  5  1  0
  5  6  1  0
  6  7  1  0
  6  8  2  0
  8  9  1  0
  9 10  2  0
 10  5  1  0
 10 11  1  0
 11 12  2  0
 11 13  1  0
  8 14  1  0
 14 15  2  0
 15 16  1  0
 16 17  2  0
 17 18  1  0
 17 19  1  0
 19 20  2  0
 20 14  1  0
 20 21  1  0
M  END
> <Score_ID>
J187

> <ID_class>
J

> <No>
1839

> <Canonical_Smiles>
CC(=N)Nn1c(C)c(cc1C(=O)N)c2ccc(F)cc2Cl

$$$$

  SciTegic12192217542D

 23 25  0  0  0  0            999 V2000
    6.4451   -1.8434    0.0000 C   0  0
    4.9531   -1.9978    0.0000 C   0  0
    4.2010   -3.2956    0.0000 C   0  0
    4.8054   -4.6666    0.0000 C   0  0
    3.9195   -5.8781    0.0000 C   0  0
    2.4275   -5.7162    0.0000 C   0  0
    0.9362   -5.5545    0.0000 N   0  0
    4.5250   -7.2514    0.0000 C   0  0
    3.7640   -8.5293    0.0000 N   0  0
    4.7659   -9.6456    0.0000 N   0  0
    6.1372   -9.0377    0.0000 N   0  0
    5.9828   -7.5456    0.0000 N   0  0
    2.7343   -2.9815    0.0000 N   0  0
    2.5987   -1.5004    0.0000 N   0  0
    3.9511   -0.8815    0.0000 C   0  0
    4.2566    0.5871    0.0000 C   0  0
    1.2990   -0.7500    0.0000 C   0  0
    1.2990    0.7500    0.0000 C   0  0
    0.0000    1.5000    0.0000 C   0  0
   -1.2990    0.7500    0.0000 C   0  0
   -1.2990   -0.7500    0.0000 C   0  0
    0.0000   -1.5000    0.0000 C   0  0
    0.0000   -3.0000    0.0000 F   0  0
  1  2  1  0
  2  3  1  0
  3  4  1  0
  4  5  2  0
  5  6  1  0
  6  7  3  0
  5  8  1  0
  8  9  2  0
  9 10  1  0
 10 11  2  0
 11 12  1  0
 12  8  1  0
  3 13  2  0
 13 14  1  0
 14 15  1  0
 15  2  2  0
 15 16  1  0
 14 17  1  0
 17 18  2  0
 18 19  1  0
 19 20  2  0
 20 21  1  0
 21 22  2  0
 22 17  1  0
 22 23  1  0
M  END
> <Score_ID>
J188

> <ID_class>
J

> <No>
1840

> <Canonical_Smiles>
Cc1c(\C=C(/C#N)\c2nnn[nH]2)nn(c1C)c3ccccc3F

$$$$

  SciTegic12192217542D

 22 23  0  0  1  0            999 V2000
    5.1976   -3.0008    0.0000 C   0  0
    3.8985   -2.2508    0.0000 C   0  0
    2.5988   -1.5004    0.0000 C   0  0
    1.2990   -0.7500    0.0000 C   0  0
    1.2990    0.7500    0.0000 C   0  0
    0.0000    1.5000    0.0000 C   0  0
   -1.2990    0.7500    0.0000 C   0  0
   -1.2990   -0.7500    0.0000 C   0  0
   -2.5981   -1.5000    0.0000 F   0  0
    0.0000   -1.5000    0.0000 C   0  0
    0.0000   -3.0008    0.0000 N   0  0
   -1.2978   -3.7529    0.0000 C   0  0
   -1.2955   -5.2529    0.0000 C   0  0  2  0  0  0
   -2.5933   -6.0050    0.0000 C   0  0
    0.0048   -6.0009    0.0000 N   0  0
    1.3026   -5.2488    0.0000 C   0  0  2  0  0  0
    2.6028   -5.9967    0.0000 N   0  0
    1.3002   -3.7488    0.0000 C   0  0
   -0.0031    3.0008    0.0000 C   0  0
    1.2946    3.7531    0.0000 O   0  0
   -1.3039    3.7494    0.0000 N   0  0
   -1.3070    5.2494    0.0000 N   0  0
  1  2  1  0
  2  3  3  0
  3  4  1  0
  4  5  2  0
  5  6  1  0
  6  7  2  0
  7  8  1  0
  8  9  1  0
  8 10  2  0
 10  4  1  0
 10 11  1  0
 11 12  1  0
 12 13  1  0
 13 14  1  1
 13 15  1  0
 15 16  1  0
 16 17  1  1
 16 18  1  0
 18 11  1  0
  6 19  1  0
 19 20  2  0
 19 21  1  0
 21 22  1  0
M  END
> <Score_ID>
J189

> <ID_class>
J

> <No>
1841

> <Canonical_Smiles>
CC#Cc1cc(cc(F)c1N2C[C@H](C)N[C@H](N)C2)C(=O)NN

$$$$

  SciTegic12192217542D

 23 25  0  0  0  0            999 V2000
    2.5981   -1.5000    0.0000 C   0  0
    1.2990   -0.7500    0.0000 C   0  0
    1.2990    0.7500    0.0000 C   0  0
    0.0000    1.5000    0.0000 C   0  0
   -1.2990    0.7500    0.0000 C   0  0
   -1.2990   -0.7500    0.0000 C   0  0
    0.0000   -1.5000    0.0000 C   0  0
   -2.6003    1.4977    0.0000 N   0  0
   -3.8990    0.7455    0.0000 C   0  0
   -3.8978   -0.7554    0.0000 C   0  0
   -2.6818   -1.6117    0.0000 C   0  0
   -3.1413   -3.0396    0.0000 C   0  0
   -4.6413   -3.0439    0.0000 C   0  0
   -5.5195   -4.2599    0.0000 C   0  0
   -5.1089   -1.6186    0.0000 N   0  0
   -6.5340   -1.1507    0.0000 C   0  0
   -2.2557   -4.2512    0.0000 C   0  0
   -2.9685   -5.5731    0.0000 C   0  0
   -2.1770   -6.8472    0.0000 C   0  0
   -0.6777   -6.7989    0.0000 C   0  0
    0.0300   -5.4763    0.0000 C   0  0
   -0.7615   -4.2022    0.0000 C   0  0
   -0.0542   -2.8794    0.0000 F   0  0
  1  2  1  0
  2  3  2  0
  3  4  1  0
  4  5  2  0
  5  6  1  0
  6  7  2  0
  7  2  1  0
  5  8  1  0
  8  9  2  0
  9 10  1  0
 10 11  2  0
 11 12  1  0
 12 13  2  0
 13 14  1  0
 13 15  1  0
 15 10  1  0
 15 16  1  0
 12 17  1  0
 17 18  2  0
 18 19  1  0
 19 20  2  0
 20 21  1  0
 21 22  2  0
 22 17  1  0
 22 23  1  0
M  END
> <Score_ID>
J190

> <ID_class>
J

> <No>
1842

> <Canonical_Smiles>
Cc1ccc(cc1)\N=C/c2cc(c(C)n2C)c3ccccc3F

$$$$

  SciTegic12192217542D

 23 25  0  0  0  0            999 V2000
    8.8145   -2.9122    0.0000 C   0  0
    7.3221   -3.0635    0.0000 N   0  0
    6.4437   -1.8466    0.0000 C   0  0
    4.9531   -1.9978    0.0000 C   0  0
    3.9511   -0.8815    0.0000 C   0  0
    4.2566    0.5871    0.0000 C   0  0
    2.5987   -1.5004    0.0000 C   0  0
    1.2990   -0.7500    0.0000 C   0  0
    1.2990    0.7500    0.0000 C   0  0
    0.0000    1.5000    0.0000 C   0  0
   -1.2990    0.7500    0.0000 C   0  0
   -1.2990   -0.7500    0.0000 C   0  0
    0.0000   -1.5000    0.0000 C   0  0
    2.7343   -2.9815    0.0000 C   0  0
    1.6115   -3.9772    0.0000 C   0  0
    0.1606   -3.6178    0.0000 C   0  0
   -0.8791   -4.6991    0.0000 C   0  0
   -0.4625   -6.1401    0.0000 C   0  0
   -1.5022   -7.2213    0.0000 F   0  0
    0.9937   -6.4998    0.0000 C   0  0
    2.0333   -5.4186    0.0000 C   0  0
    4.2010   -3.2956    0.0000 N   0  0
    4.8089   -4.6669    0.0000 C   0  0
  1  2  1  0
  2  3  2  0
  3  4  1  0
  4  5  2  0
  5  6  1  0
  5  7  1  0
  7  8  1  0
  8  9  2  0
  9 10  1  0
 10 11  2  0
 11 12  1  0
 12 13  2  0
 13  8  1  0
  7 14  2  0
 14 15  1  0
 15 16  2  0
 16 17  1  0
 17 18  2  0
 18 19  1  0
 18 20  1  0
 20 21  2  0
 21 15  1  0
 14 22  1  0
 22  4  1  0
 22 23  1  0
M  END
> <Score_ID>
J191

> <ID_class>
J

> <No>
1843

> <Canonical_Smiles>
C\N=C\c1c(C)c(c2ccccc2)c(c3ccc(F)cc3)n1C

$$$$

  SciTegic12192217542D

 22 23  0  0  0  0            999 V2000
    6.4451   -1.8434    0.0000 C   0  0
    4.9531   -1.9978    0.0000 C   0  0
    4.2010   -3.2956    0.0000 N   0  0
    2.7343   -2.9815    0.0000 N   0  0
    2.5987   -1.5004    0.0000 C   0  0
    3.9511   -0.8815    0.0000 C   0  0
    4.2567    0.5852    0.0000 C   0  0
    5.6819    1.0557    0.0000 N   0  0
    5.9880    2.5249    0.0000 N   0  0
    7.4132    2.9954    0.0000 C   0  0
    7.7191    4.4639    0.0000 N   0  0
    8.5323    1.9966    0.0000 N   0  0
    1.2990   -0.7500    0.0000 C   0  0
    1.2990    0.7500    0.0000 C   0  0
    0.0000    1.5000    0.0000 C   0  0
    0.0000    3.0000    0.0000 F   0  0
   -1.2990    0.7500    0.0000 C   0  0
   -1.2990   -0.7500    0.0000 C   0  0
    0.0000   -1.5000    0.0000 C   0  0
   -0.0031   -3.0008    0.0000 N   0  3
   -1.3032   -3.7490    0.0000 O   0  0
    1.2947   -3.7531    0.0000 O   0  5
  1  2  1  0
  2  3  1  0
  3  4  1  0
  4  5  2  0
  5  6  1  0
  6  2  2  0
  6  7  1  0
  7  8  2  0
  8  9  1  0
  9 10  1  0
 10 11  2  0
 10 12  1  0
  5 13  1  0
 13 14  2  0
 14 15  1  0
 15 16  1  0
 15 17  2  0
 17 18  1  0
 18 19  2  0
 19 13  1  0
 19 20  1  0
 20 21  2  0
 20 22  1  0
M  CHG  2  20   1  22  -1
M  END
> <Score_ID>
J192

> <ID_class>
J

> <No>
1844

> <Canonical_Smiles>
Cc1[nH]nc(c1\C=N\NC(=N)N)c2cc(F)ccc2[N+](=O)[O-]

$$$$

  SciTegic12192217542D

 17 18  0  0  0  0            999 V2000
    3.1202   -2.0921    0.0000 N   0  0
    1.6281   -2.2462    0.0000 C   0  0
    1.0161   -3.6157    0.0000 N   0  0
    0.7500   -1.0323    0.0000 C   0  0
    1.2135    0.3943    0.0000 C   0  0
    2.6401    0.8578    0.0000 F   0  0
    0.0000    1.2760    0.0000 C   0  0
   -0.0031    2.7742    0.0000 C   0  0
   -1.3040    3.5228    0.0000 N   0  0
   -1.4470    5.0031    0.0000 C   0  0
   -2.9153    5.3098    0.0000 N   0  0
   -3.6608    4.0082    0.0000 C   0  0
   -5.1520    3.8462    0.0000 Br  0  0
   -2.6532    2.8970    0.0000 N   0  0
   -1.2135    0.3943    0.0000 N   0  0
   -0.7500   -1.0323    0.0000 N   0  0
   -1.6317   -2.2458    0.0000 N   0  0
  1  2  1  0
  2  3  2  0
  2  4  1  0
  4  5  2  0
  5  6  1  0
  5  7  1  0
  7  8  1  0
  8  9  1  0
  9 10  1  0
 10 11  2  0
 11 12  1  0
 12 13  1  0
 12 14  2  0
 14  9  1  0
  7 15  2  0
 15 16  1  0
 16  4  1  0
 16 17  1  0
M  END
> <Score_ID>
J193

> <ID_class>
J

> <No>
1845

> <Canonical_Smiles>
NC(=N)c1c(F)c(Cn2cnc(Br)n2)nn1N

$$$$

  SciTegic12192217542D

 22 23  0  0  1  0            999 V2000
    5.8198    5.0074    0.0000 C   0  0
    5.2158    3.6344    0.0000 N   0  0
    3.7246    3.4715    0.0000 C   0  0
    6.1025    2.4237    0.0000 C   0  0  1  0  0  0
    4.6113    2.2614    0.0000 C   0  0
    7.5944    2.5867    0.0000 C   0  0
    9.0856    2.7496    0.0000 N   0  0
    5.4979    1.0528    0.0000 C   0  0
    6.2524   -0.2436    0.0000 N   0  0
    5.2526   -1.3618    0.0000 C   0  0
    5.5608   -2.8298    0.0000 C   0  0
    3.8990   -0.7455    0.0000 N   0  0
    2.6003   -1.4977    0.0000 N   0  0
    1.2990   -0.7500    0.0000 C   0  0
    1.2990    0.7500    0.0000 C   0  0
    0.0000    1.5000    0.0000 C   0  0
   -1.2990    0.7500    0.0000 C   0  0
   -1.2990   -0.7500    0.0000 C   0  0
    0.0000   -1.5000    0.0000 C   0  0
    0.0000   -3.0000    0.0000 F   0  0
    4.0317    0.7359    0.0000 C   0  0
    2.9076    1.7290    0.0000 C   0  0
  1  2  1  0
  2  3  1  0
  2  4  1  0
  4  5  1  6
  4  6  1  0
  6  7  3  0
  4  8  1  0
  8  9  1  0
  9 10  2  0
 10 11  1  0
 10 12  1  0
 12 13  1  0
 13 14  1  0
 14 15  2  0
 15 16  1  0
 16 17  2  0
 17 18  1  0
 18 19  2  0
 19 14  1  0
 19 20  1  0
 12 21  1  0
 21  8  2  0
 21 22  1  0
M  END
> <Score_ID>
J194

> <ID_class>
J

> <No>
1846

> <Canonical_Smiles>
CN(C)[C@@](C)(C#N)c1nc(C)n(Nc2ccccc2F)c1C

$$$$

  SciTegic12192217542D

 22 23  0  0  0  0            999 V2000
    6.9549   -1.4537    0.0000 C   0  0
    5.5312   -1.9263    0.0000 N   0  0
    5.2276   -3.3960    0.0000 C   0  0
    6.3483   -4.3930    0.0000 O   0  0
    3.8056   -3.8679    0.0000 C   0  0
    3.3372   -5.2929    0.0000 C   0  0
    4.2146   -6.5095    0.0000 C   0  0
    1.8372   -5.2877    0.0000 C   0  0
    1.3786   -3.8595    0.0000 N   0  0
    2.5951   -3.0039    0.0000 C   0  0
    2.5973   -1.5031    0.0000 C   0  0
    3.8976   -0.7553    0.0000 C   0  0
    1.2990   -0.7500    0.0000 C   0  0
    1.2990    0.7500    0.0000 C   0  0
    0.0000    1.5000    0.0000 C   0  0
   -1.2990    0.7500    0.0000 C   0  0
   -2.5973    1.5031    0.0000 N   0  0
   -2.5951    3.0031    0.0000 C   0  0
   -3.8976    0.7553    0.0000 C   0  0
   -1.2990   -0.7500    0.0000 C   0  0
   -2.5981   -1.5000    0.0000 F   0  0
    0.0000   -1.5000    0.0000 C   0  0
  1  2  1  0
  2  3  1  0
  3  4  2  0
  3  5  1  0
  5  6  1  0
  6  7  1  0
  6  8  2  0
  8  9  1  0
  9 10  1  0
 10  5  2  0
 10 11  1  0
 11 12  2  0
 11 13  1  0
 13 14  2  0
 14 15  1  0
 15 16  2  0
 16 17  1  0
 17 18  1  0
 17 19  1  0
 16 20  1  0
 20 21  1  0
 20 22  2  0
 22 13  1  0
M  END
> <Score_ID>
J195

> <ID_class>
J

> <No>
1847

> <Canonical_Smiles>
CNC(=O)c1c(C)c[nH]c1C(=C)c2ccc(N(C)C)c(F)c2

$$$$

  SciTegic12192217542D

 21 22  0  0  0  0            999 V2000
    5.1976   -3.0008    0.0000 C   0  0
    3.8985   -2.2508    0.0000 C   0  0
    2.5988   -1.5004    0.0000 C   0  0
    1.2990   -0.7500    0.0000 C   0  0
    1.2990    0.7500    0.0000 C   0  0
    0.0000    1.5000    0.0000 C   0  0
   -1.2990    0.7500    0.0000 C   0  0
   -1.2990   -0.7500    0.0000 C   0  0
    0.0000   -1.5000    0.0000 C   0  0
   -2.5972   -1.5031    0.0000 N   0  3
   -2.5951   -3.0031    0.0000 O   0  0
   -3.8976   -0.7554    0.0000 O   0  5
    0.0000    3.0008    0.0000 C   0  0
    1.2978    3.7529    0.0000 C   0  0
    1.2954    5.2529    0.0000 C   0  0
    2.5933    6.0050    0.0000 O   0  0
   -0.0048    6.0009    0.0000 N   0  0
   -0.0072    7.5009    0.0000 C   0  0
   -1.3026    5.2488    0.0000 C   0  0
   -2.6029    5.9967    0.0000 S   0  0
   -1.3002    3.7488    0.0000 N   0  0
  1  2  1  0
  2  3  3  0
  3  4  1  0
  4  5  2  0
  5  6  1  0
  6  7  2  0
  7  8  1  0
  8  9  2  0
  9  4  1  0
  8 10  1  0
 10 11  2  0
 10 12  1  0
  6 13  1  0
 13 14  2  3
 14 15  1  0
 15 16  2  0
 15 17  1  0
 17 18  1  0
 17 19  1  0
 19 20  2  0
 19 21  1  0
 21 13  1  0
M  CHG  2  10   1  12  -1
M  END
> <Score_ID>
J196

> <ID_class>
J

> <No>
1848

> <Canonical_Smiles>
CC#Cc1cc(cc(c1)[N+](=O)[O-])C2=CC(=O)N(C)C(=S)N2

$$$$

  SciTegic12192217542D

 21 22  0  0  0  0            999 V2000
    0.1881   -3.4924    0.0000 C   0  0
    1.6096   -3.9713    0.0000 N   0  0
    1.9053   -5.4418    0.0000 C   0  0
    2.7343   -2.9815    0.0000 N   0  0
    4.2010   -3.2956    0.0000 C   0  0
    4.8089   -4.6669    0.0000 S   0  0
    4.9531   -1.9978    0.0000 C   0  0
    6.4433   -1.8435    0.0000 C   0  0
    7.9354   -1.6891    0.0000 N   0  0
    3.9511   -0.8815    0.0000 C   0  0
    4.2506    0.5865    0.0000 C   0  0
    3.1284    1.5817    0.0000 O   0  0
    5.6735    1.0612    0.0000 N   0  0
    2.5987   -1.5004    0.0000 C   0  0
    1.2990   -0.7500    0.0000 C   0  0
    1.2990    0.7500    0.0000 C   0  0
    0.0000    1.5000    0.0000 C   0  0
   -1.2990    0.7500    0.0000 C   0  0
   -1.2990   -0.7500    0.0000 C   0  0
    0.0000   -1.5000    0.0000 C   0  0
    0.0000   -3.0000    0.0000 C   0  0
  1  2  1  0
  2  3  1  0
  2  4  1  0
  4  5  1  0
  5  6  1  0
  5  7  2  0
  7  8  1  0
  8  9  3  0
  7 10  1  0
 10 11  1  0
 11 12  2  0
 11 13  1  0
 10 14  2  0
 14  4  1  0
 14 15  1  0
 15 16  2  0
 16 17  1  0
 17 18  2  0
 18 19  1  0
 19 20  2  0
 20 15  1  0
 20 21  1  0
M  END
> <Score_ID>
J197

> <ID_class>
J

> <No>
1849

> <Canonical_Smiles>
CN(C)n1c(S)c(C#N)c(C(=O)N)c1c2ccccc2C

$$$$

  SciTegic12192217542D

 21 23  0  0  0  0            999 V2000
    5.9477   -1.8948    0.0000 C   0  0
    4.9531   -1.9978    0.0000 C   0  0
    4.2010   -3.2956    0.0000 C   0  0
    2.7343   -2.9815    0.0000 C   0  0
    2.5987   -1.5004    0.0000 C   0  0
    1.2990   -0.7500    0.0000 C   0  0
    1.2990    0.7500    0.0000 C   0  0
    0.0000    1.5000    0.0000 C   0  0
   -1.2990    0.7500    0.0000 C   0  0
   -2.5981    1.5000    0.0000 F   0  0
   -1.2990   -0.7500    0.0000 C   0  0
    0.0000   -1.5000    0.0000 C   0  0
    3.9511   -0.8815    0.0000 N   0  0
    4.2567    0.5852    0.0000 N   0  0
    5.6819    1.0557    0.0000 C   0  0
    6.8026    0.0574    0.0000 C   0  0
    6.6344   -1.4204    0.0000 C   0  0
    8.0067   -2.0260    0.0000 C   0  0
    9.0067   -0.9080    0.0000 S   0  0
    8.2525    0.3886    0.0000 C   0  0
    8.8499    1.7644    0.0000 N   0  0
  1  2  1  0
  2  3  2  0
  3  4  1  0
  4  5  2  0
  5  6  1  0
  6  7  2  0
  7  8  1  0
  8  9  2  0
  9 10  1  0
  9 11  1  0
 11 12  2  0
 12  6  1  0
  5 13  1  0
 13  2  1  0
 13 14  1  0
 14 15  2  0
 15 16  1  0
 16 17  1  0
 17 18  2  0
 18 19  1  0
 19 20  1  0
 20 16  2  0
 20 21  1  0
M  END
> <Score_ID>
J198

> <ID_class>
J

> <No>
1850

> <Canonical_Smiles>
Cc1ccc(c2ccc(F)cc2)n1\N=C/c3ccsc3N

$$$$

  SciTegic12192217542D

 22 24  0  0  1  0            999 V2000
    6.1718    0.7439    0.0000 C   0  0
    7.0537   -0.4695    0.0000 C   0  0  1  0  0  0
    6.4430   -1.8405    0.0000 C   0  0
    4.9531   -1.9978    0.0000 N   0  0
    3.9511   -0.8815    0.0000 N   0  0
    2.5987   -1.5004    0.0000 C   0  0
    2.7343   -2.9815    0.0000 N   0  0
    4.2010   -3.2956    0.0000 C   0  0
    4.8089   -4.6669    0.0000 C   0  0
    1.2990   -0.7500    0.0000 C   0  0
    1.2990    0.7500    0.0000 C   0  0
    0.0000    1.5000    0.0000 C   0  0
   -1.2990    0.7500    0.0000 C   0  0
   -2.5981    1.5000    0.0000 F   0  0
   -1.2990   -0.7500    0.0000 C   0  0
    0.0000   -1.5000    0.0000 C   0  0
    8.5462   -0.3119    0.0000 C   0  0
    9.5302   -1.4271    0.0000 C   0  0
   10.8994   -0.8144    0.0000 C   0  0
   10.7399    0.6771    0.0000 C   0  0
   11.8528    1.6828    0.0000 N   0  0
    9.2721    0.9862    0.0000 N   0  0
  2  1  1  6
  2  3  1  0
  3  4  1  0
  4  5  1  0
  5  6  2  0
  6  7  1  0
  7  8  2  0
  8  4  1  0
  8  9  1  0
  6 10  1  0
 10 11  2  0
 11 12  1  0
 12 13  2  0
 13 14  1  0
 13 15  1  0
 15 16  2  0
 16 10  1  0
  2 17  1  0
 17 18  2  0
 18 19  1  0
 19 20  2  0
 20 21  1  0
 20 22  1  0
 22 17  1  0
M  END
> <Score_ID>
J199

> <ID_class>
J

> <No>
1851

> <Canonical_Smiles>
C[C@@H](Cn1nc(nc1C)c2ccc(F)cc2)c3ccc(N)[nH]3

$$$$

  SciTegic12192217542D

 22 24  0  0  1  0            999 V2000
    4.0451   -7.0250    0.0000 C   0  0
    2.5451   -7.0223    0.0000 C   0  0  1  0  0  0
    1.7932   -8.3203    0.0000 N   0  0
    1.7974   -5.7210    0.0000 C   0  0
    2.5497   -4.4224    0.0000 N   0  0
    1.8032   -3.1233    0.0000 N   0  0
    2.4133   -1.7530    0.0000 C   0  0
    3.8805   -1.4410    0.0000 C   0  0
    1.2990   -0.7500    0.0000 C   0  0
    1.2990    0.7500    0.0000 C   0  0
    0.0000    1.5000    0.0000 C   0  0
   -1.2990    0.7500    0.0000 C   0  0
   -1.2990   -0.7500    0.0000 C   0  0
    0.0000   -1.5000    0.0000 C   0  0
    0.3114   -2.9665    0.0000 C   0  0
   -0.6928   -4.0817    0.0000 C   0  0
   -2.1743   -3.8808    0.0000 C   0  0
   -3.0913   -5.0679    0.0000 C   0  0
   -2.5218   -6.4556    0.0000 C   0  0
   -3.4388   -7.6426    0.0000 F   0  0
   -1.0353   -6.6562    0.0000 C   0  0
   -0.1183   -5.4691    0.0000 C   0  0
  2  1  1  1
  2  3  1  0
  2  4  1  0
  4  5  1  0
  5  6  1  0
  6  7  1  0
  7  8  1  0
  7  9  2  0
  9 10  1  0
 10 11  2  0
 11 12  1  0
 12 13  2  0
 13 14  1  0
 14  9  1  0
 14 15  2  0
 15  6  1  0
 15 16  1  0
 16 17  2  0
 17 18  1  0
 18 19  2  0
 19 20  1  0
 19 21  1  0
 21 22  2  0
 22 16  1  0
M  END
> <Score_ID>
J200

> <ID_class>
J

> <No>
1852

> <Canonical_Smiles>
C[C@@H](N)CNn1c(C)c2ccccc2c1c3ccc(F)cc3

$$$$

  SciTegic12192217542D

 22 24  0  0  1  0            999 V2000
    3.8986    0.2504    0.0000 C   0  0
    3.8982   -0.7496    0.0000 C   0  0
    2.5988   -1.5004    0.0000 C   0  0  2  0  0  0
    1.2990   -0.7500    0.0000 C   0  0
    1.2990    0.7500    0.0000 C   0  0
    0.0000    1.5000    0.0000 C   0  0
   -1.2990    0.7500    0.0000 C   0  0
   -1.2990   -0.7500    0.0000 C   0  0
    0.0000   -1.5000    0.0000 C   0  0
    2.5986    0.0003    0.0000 C   0  0
    3.8119    0.8603    0.0000 N   0  0
    3.3482    2.2868    0.0000 C   0  0
    4.2297    3.5005    0.0000 C   0  0
    1.8482    2.2865    0.0000 N   0  0
    0.9663    3.4999    0.0000 N   0  0
    1.3849    0.8599    0.0000 C   0  0
   -0.0388    0.3876    0.0000 F   0  0
    2.5997   -3.0012    0.0000 N   0  0
    3.8138   -3.8602    0.0000 C   0  0
    3.3512   -5.2871    0.0000 C   0  0
    1.8512   -5.2880    0.0000 C   0  0
    1.3868   -3.8617    0.0000 C   0  0
  1  2  1  0
  3  2  1  6
  3  4  1  0
  4  5  2  0
  5  6  1  0
  6  7  2  0
  7  8  1  0
  8  9  2  0
  9  4  1  0
  3 10  1  0
 10 11  1  0
 11 12  2  0
 12 13  1  0
 12 14  1  0
 14 15  1  0
 14 16  1  0
 16 10  2  0
 16 17  1  0
  3 18  1  0
 18 19  1  0
 19 20  2  0
 20 21  1  0
 21 22  2  0
 22 18  1  0
M  END
> <Score_ID>
J201

> <ID_class>
J

> <No>
1853

> <Canonical_Smiles>
CC[C@](c1ccccc1)(c2nc(C)n(N)c2F)n3cccc3

$$$$

  SciTegic12192217542D

 22 24  0  0  0  0            999 V2000
    4.2146   -6.5095    0.0000 C   0  0
    3.3372   -5.2929    0.0000 C   0  0
    3.8056   -3.8679    0.0000 C   0  0
    2.5951   -3.0039    0.0000 N   0  0
    2.5973   -1.5031    0.0000 C   0  0
    1.2990   -0.7500    0.0000 C   0  0
    1.2990    0.7500    0.0000 N   0  0
    0.0000    1.5000    0.0000 C   0  0
    0.0000    3.0000    0.0000 N   0  0
   -1.2990    0.7500    0.0000 N   0  0
   -1.2990   -0.7500    0.0000 C   0  0
   -2.5981   -1.5000    0.0000 N   0  0
    0.0000   -1.5000    0.0000 N   0  0
    1.3786   -3.8595    0.0000 C   0  0
    1.8372   -5.2877    0.0000 C   0  0
    0.9508   -6.4988    0.0000 C   0  0
   -0.5434   -6.4487    0.0000 C   0  0
   -1.3357   -7.7224    0.0000 C   0  0
   -0.6288   -9.0454    0.0000 C   0  0
   -1.4211  -10.3191    0.0000 F   0  0
    0.8704   -9.0947    0.0000 C   0  0
    1.6627   -7.8210    0.0000 C   0  0
  1  2  1  0
  2  3  2  0
  3  4  1  0
  4  5  1  0
  5  6  1  0
  6  7  2  0
  7  8  1  0
  8  9  1  0
  8 10  2  0
 10 11  1  0
 11 12  1  0
 11 13  2  0
 13  6  1  0
  4 14  1  0
 14 15  2  0
 15  2  1  0
 15 16  1  0
 16 17  2  0
 17 18  1  0
 18 19  2  0
 19 20  1  0
 19 21  1  0
 21 22  2  0
 22 16  1  0
M  END
> <Score_ID>
J202

> <ID_class>
J

> <No>
1854

> <Canonical_Smiles>
Cc1cn(Cc2nc(N)nc(N)n2)cc1c3ccc(F)cc3

$$$$

  SciTegic12192217542D

 22 24  0  0  0  0            999 V2000
    2.5981   -1.5000    0.0000 C   0  0
    1.2990   -0.7500    0.0000 C   0  0
    1.2990    0.7500    0.0000 C   0  0
    0.0000    1.5000    0.0000 C   0  0
   -1.2990    0.7500    0.0000 C   0  0
   -1.2990   -0.7500    0.0000 C   0  0
   -2.5981   -1.5000    0.0000 C   0  0
    0.0000   -1.5000    0.0000 C   0  0
    0.0000   -3.0000    0.0000 F   0  0
    0.0000    3.0008    0.0000 N   0  0
   -1.2149    3.8587    0.0000 C   0  0
   -0.7536    5.2860    0.0000 C   0  0
    0.7463    5.2884    0.0000 N   0  0
    1.2121    3.8625    0.0000 C   0  0
    2.6374    3.3926    0.0000 C   0  0
    3.1873    2.0161    0.0000 C   0  0
    4.6827    2.1334    0.0000 C   0  0
    5.0332    3.5919    0.0000 C   0  0
    3.7545    4.3760    0.0000 N   0  0
   -1.6337    6.4985    0.0000 C   0  0
   -1.0238    7.8689    0.0000 O   0  0
   -3.1255    6.3420    0.0000 N   0  0
  1  2  1  0
  2  3  2  0
  3  4  1  0
  4  5  2  0
  5  6  1  0
  6  7  1  0
  6  8  2  0
  8  2  1  0
  8  9  1  0
  4 10  1  0
 10 11  1  0
 11 12  2  0
 12 13  1  0
 13 14  2  0
 14 10  1  0
 14 15  1  0
 15 16  2  0
 16 17  1  0
 17 18  2  0
 18 19  1  0
 19 15  1  0
 12 20  1  0
 20 21  2  0
 20 22  1  0
M  END
> <Score_ID>
J203

> <ID_class>
J

> <No>
1855

> <Canonical_Smiles>
Cc1cc(cc(C)c1F)n2cc(nc2c3ccc[nH]3)C(=O)N

$$$$

  SciTegic12192217542D

 22 23  0  0  0  0            999 V2000
    2.5981   -1.5000    0.0000 C   0  0
    1.2990   -0.7500    0.0000 C   0  0
    1.2990    0.7500    0.0000 C   0  0
    0.0000    1.5000    0.0000 C   0  0
   -1.2990    0.7500    0.0000 C   0  0
   -1.2990   -0.7500    0.0000 C   0  0
    0.0000   -1.5000    0.0000 C   0  0
   -0.0031   -3.0008    0.0000 N   0  0
   -1.3039   -3.7494    0.0000 N   0  0
   -1.3070   -5.2502    0.0000 C   0  0
   -2.6078   -5.9988    0.0000 C   0  0
   -2.7508   -7.4791    0.0000 C   0  0
   -1.6336   -8.4801    0.0000 C   0  0
   -4.2191   -7.7859    0.0000 N   0  0
   -4.8340   -9.1541    0.0000 C   0  0
   -4.9646   -6.4843    0.0000 N   0  0
   -3.9570   -5.3730    0.0000 C   0  0
   -4.2552   -3.9048    0.0000 N   0  3
   -5.6772   -3.4274    0.0000 O   0  0
   -3.1311   -2.9117    0.0000 O   0  5
   -2.5988    1.5004    0.0000 C   0  0
   -3.8978    2.2504    0.0000 N   0  0
  1  2  1  0
  2  3  2  0
  3  4  1  0
  4  5  2  0
  5  6  1  0
  6  7  2  0
  7  2  1  0
  7  8  1  0
  8  9  1  0
  9 10  2  0
 10 11  1  0
 11 12  2  0
 12 13  1  0
 12 14  1  0
 14 15  1  0
 14 16  1  0
 16 17  2  0
 17 11  1  0
 17 18  1  0
 18 19  2  0
 18 20  1  0
  5 21  1  0
 21 22  3  0
M  CHG  2  18   1  20  -1
M  END
> <Score_ID>
J204

> <ID_class>
J

> <No>
1856

> <Canonical_Smiles>
Cc1ccc(cc1N\N=C\c2c(C)n(C)nc2[N+](=O)[O-])C#N

$$$$

  SciTegic12192217542D

 22 24  0  0  0  0            999 V2000
    4.8089   -4.6669    0.0000 C   0  0
    4.2010   -3.2956    0.0000 C   0  0
    2.7343   -2.9815    0.0000 C   0  0
    2.5987   -1.5004    0.0000 C   0  0
    1.2990   -0.7500    0.0000 C   0  0
    1.2990    0.7500    0.0000 C   0  0
    0.0000    1.5000    0.0000 C   0  0
   -1.2990    0.7500    0.0000 C   0  0
   -2.5981    1.5000    0.0000 F   0  0
   -1.2990   -0.7500    0.0000 C   0  0
    0.0000   -1.5000    0.0000 C   0  0
    3.9511   -0.8815    0.0000 N   0  0
    4.9531   -1.9978    0.0000 C   0  0
    4.2567    0.5852    0.0000 N   0  0
    5.6819    1.0557    0.0000 C   0  0
    5.9880    2.5249    0.0000 C   0  0
    4.9731    3.6121    0.0000 C   0  0
    5.7152    4.9157    0.0000 C   0  0
    5.0967    6.2823    0.0000 N   0  0
    7.1843    4.6128    0.0000 N   0  0
    7.3502    3.1220    0.0000 N   0  0
    8.6493    2.3722    0.0000 C   0  0
  1  2  1  0
  2  3  1  0
  3  4  2  0
  4  5  1  0
  5  6  2  0
  6  7  1  0
  7  8  2  0
  8  9  1  0
  8 10  1  0
 10 11  2  0
 11  5  1  0
  4 12  1  0
 12 13  1  0
 13  2  2  0
 12 14  1  0
 14 15  2  0
 15 16  1  0
 16 17  2  0
 17 18  1  0
 18 19  1  0
 18 20  2  0
 20 21  1  0
 21 16  1  0
 21 22  1  0
M  END
> <Score_ID>
J205

> <ID_class>
J

> <No>
1857

> <Canonical_Smiles>
Cc1cc(c2ccc(F)cc2)n(c1)\N=C\c3cc(N)nn3C

$$$$

  SciTegic12192217542D

 22 24  0  0  0  0            999 V2000
    4.2566    0.5871    0.0000 C   0  0
    3.9511   -0.8815    0.0000 C   0  0
    4.9531   -1.9978    0.0000 C   0  0
    6.4451   -1.8434    0.0000 C   0  0
    4.2010   -3.2956    0.0000 N   0  0
    2.7343   -2.9815    0.0000 C   0  0
    2.5987   -1.5004    0.0000 C   0  0
    1.2990   -0.7500    0.0000 C   0  0
    1.2990    0.7500    0.0000 C   0  0
    0.0000    1.5000    0.0000 C   0  0
   -1.2990    0.7500    0.0000 C   0  0
   -2.5981    1.5000    0.0000 F   0  0
   -1.2990   -0.7500    0.0000 C   0  0
    0.0000   -1.5000    0.0000 C   0  0
    4.8092   -4.6676    0.0000 C   0  0
    3.8322   -5.8081    0.0000 C   0  0
    4.3352   -7.2212    0.0000 C   0  0
    5.8106   -7.4921    0.0000 C   0  0
    6.7829   -6.3499    0.0000 C   0  0
    6.2798   -4.9368    0.0000 C   0  0
    7.2537   -3.7948    0.0000 C   0  0
    8.7289   -4.0660    0.0000 N   0  0
  1  2  1  0
  2  3  2  0
  3  4  1  0
  3  5  1  0
  5  6  1  0
  6  7  2  0
  7  2  1  0
  7  8  1  0
  8  9  2  0
  9 10  1  0
 10 11  2  0
 11 12  1  0
 11 13  1  0
 13 14  2  0
 14  8  1  0
  5 15  1  0
 15 16  2  0
 16 17  1  0
 17 18  2  0
 18 19  1  0
 19 20  2  0
 20 15  1  0
 20 21  1  0
 21 22  1  0
M  END
> <Score_ID>
J206

> <ID_class>
J

> <No>
1858

> <Canonical_Smiles>
Cc1c(C)n(cc1c2ccc(F)cc2)c3ccccc3CN

$$$$
