


 31 34  0  0  0  0  0  0  0  0999 V2000
   12.1356   -0.6977   61.9364 C   0  0  0  0  0  0  0  0  0  0  0  0
   11.3271   -0.5532   60.8143 C   0  0  0  0  0  0  0  0  0  0  0  0
   13.5082   -0.4627   61.8434 C   0  0  0  0  0  0  0  0  0  0  0  0
   11.8908   -0.1833   59.5945 C   0  0  0  0  0  0  0  0  0  0  0  0
   16.2990   -0.3226   56.8152 C   0  0  0  0  0  0  0  0  0  0  0  0
   17.6247   -0.7519   56.8440 C   0  0  0  0  0  0  0  0  0  0  0  0
   17.6184   -0.5925   59.2520 C   0  0  0  0  0  0  0  0  0  0  0  0
   14.0918   -0.0699   60.6259 C   0  0  0  0  0  0  0  0  0  0  0  0
   16.2874   -0.1393   59.2416 C   0  0  0  0  0  0  0  0  0  0  0  0
   13.2705    0.0485   59.4886 C   0  0  0  0  0  0  0  0  0  0  0  0
   15.6205   -0.0258   58.0069 C   0  0  0  0  0  0  0  0  0  0  0  0
   18.2821   -0.8917   58.0612 C   0  0  0  0  0  0  0  0  0  0  0  0
   15.5539    0.1727   60.4977 C   0  0  0  0  0  0  0  0  0  0  0  0
   16.2035    0.8017   61.4965 C   0  0  0  0  0  0  0  0  0  0  0  0
   13.9168    0.5093   57.8842 S   0  0  0  0  0  0  0  0  0  0  0  0
   20.6865   -0.5824   59.0055 O   0  0  0  0  0  0  0  0  0  0  0  0
   19.9299   -2.8827   58.3575 O   0  0  0  0  0  0  0  0  0  0  0  0
   19.9376   -1.4469   58.1001 S   0  0  0  0  0  0  0  0  0  0  0  0
   20.3410    0.1964   55.9294 C   0  0  0  0  0  0  0  0  0  0  0  0
   21.7774   -1.7969   56.0839 C   0  0  0  0  0  0  0  0  0  0  0  0
   20.4904   -1.1731   56.4838 N   0  0  0  0  0  0  0  0  0  0  0  0
   17.6699    1.0971   61.4755 C   0  0  0  0  0  0  0  0  0  0  0  0
   18.2717    1.1831   62.8731 C   0  0  0  0  0  0  0  0  0  0  0  0
   21.4359   -0.4642   64.2548 C   0  0  0  0  0  0  0  0  0  0  0  0
   21.9666    0.5392   62.1196 C   0  0  0  0  0  0  0  0  0  0  0  0
   20.0986    0.2673   64.3059 C   0  0  0  0  0  0  0  0  0  0  0  0
   20.6448    1.2998   62.1088 C   0  0  0  0  0  0  0  0  0  0  0  0
   23.7188   -0.3898   63.4879 C   0  0  0  0  0  0  0  0  0  0  0  0
   22.4305    0.3025   63.4930 N   0  0  0  0  0  0  0  0  0  0  0  0
   19.6213    0.5236   62.8986 N   0  0  0  0  0  0  0  0  0  0  0  0
   19.5157   -0.3943   62.4420 H   0  0  0  0  0  0  0  0  0  0  0  0
  1  2  1  0  0  0
  1  3  2  0  0  0
  2  4  2  0  0  0
  3  8  1  0  0  0
  4 10  1  0  0  0
  5  6  2  0  0  0
  5 11  1  0  0  0
  6 12  1  0  0  0
  7  9  1  0  0  0
  7 12  2  0  0  0
  8 10  2  0  0  0
  8 13  1  0  0  0
  9 11  2  0  0  0
  9 13  1  0  0  0
 10 15  1  0  0  0
 11 15  1  0  0  0
 12 18  1  0  0  0
 13 14  2  0  0  0
 14 22  1  0  0  0
 24 26  1  0  0  0
 24 29  1  0  0  0
 25 27  1  0  0  0
 25 29  1  0  0  0
 26 30  1  0  0  0
 27 30  1  0  0  0
 28 29  1  0  0  0
 19 21  1  0  0  0
 20 21  1  0  0  0
 22 23  1  0  0  0
 23 30  1  0  0  0
 21 18  1  0  0  0
 16 18  2  0  0  0
 17 18  2  0  0  0
 30 31  1  0  0  0
M  CHG 1  30   1
M  END
> <minimizedAffinity>
7.68814

> <CNNscore>
0.4950007200

> <CNNaffinity>
7.2955121994

> <CNN_VS>
3.6112837791

> <CNNaffinity_variance>
0.3797352314

$$$$



 31 34  0  0  0  0  0  0  0  0999 V2000
   13.2467   -2.4592   61.6248 C   0  0  0  0  0  0  0  0  0  0  0  0
   13.8208   -1.5091   60.7873 C   0  0  0  0  0  0  0  0  0  0  0  0
   11.9043   -2.3483   61.9903 C   0  0  0  0  0  0  0  0  0  0  0  0
   13.0566   -0.4406   60.3217 C   0  0  0  0  0  0  0  0  0  0  0  0
    8.9312    2.5450   61.4367 C   0  0  0  0  0  0  0  0  0  0  0  0
    7.9271    2.7559   62.3800 C   0  0  0  0  0  0  0  0  0  0  0  0
    8.0578    0.4355   63.0299 C   0  0  0  0  0  0  0  0  0  0  0  0
   11.1126   -1.2881   61.5147 C   0  0  0  0  0  0  0  0  0  0  0  0
    9.0578    0.1990   62.0702 C   0  0  0  0  0  0  0  0  0  0  0  0
   11.7082   -0.3160   60.6887 C   0  0  0  0  0  0  0  0  0  0  0  0
    9.5089    1.2757   61.2831 C   0  0  0  0  0  0  0  0  0  0  0  0
    7.4945    1.7037   63.1793 C   0  0  0  0  0  0  0  0  0  0  0  0
    9.6836   -1.1400   61.9011 C   0  0  0  0  0  0  0  0  0  0  0  0
    8.9090   -2.2396   61.9795 C   0  0  0  0  0  0  0  0  0  0  0  0
   10.7997    1.0909   60.0568 S   0  0  0  0  0  0  0  0  0  0  0  0
    6.6332    3.1222   65.1829 O   0  0  0  0  0  0  0  0  0  0  0  0
    4.9610    2.0002   63.6901 O   0  0  0  0  0  0  0  0  0  0  0  0
    6.2490    1.9704   64.3743 S   0  0  0  0  0  0  0  0  0  0  0  0
    5.2654   -0.4737   65.1701 C   0  0  0  0  0  0  0  0  0  0  0  0
    7.6601   -0.0668   65.5706 C   0  0  0  0  0  0  0  0  0  0  0  0
    6.3256    0.5490   65.3575 N   0  0  0  0  0  0  0  0  0  0  0  0
    7.4621   -2.2095   62.3583 C   0  0  0  0  0  0  0  0  0  0  0  0
    7.2008   -2.8240   63.7283 C   0  0  0  0  0  0  0  0  0  0  0  0
    3.8371   -4.2849   62.6392 C   0  0  0  0  0  0  0  0  0  0  0  0
    4.2965   -5.0235   64.8955 C   0  0  0  0  0  0  0  0  0  0  0  0
    4.9662   -3.2618   62.7066 C   0  0  0  0  0  0  0  0  0  0  0  0
    5.4388   -4.0219   65.0284 C   0  0  0  0  0  0  0  0  0  0  0  0
    2.1584   -5.4835   63.8844 C   0  0  0  0  0  0  0  0  0  0  0  0
    3.2668   -4.5332   63.9698 N   0  0  0  0  0  0  0  0  0  0  0  0
    6.0223   -3.7535   63.6641 N   0  0  0  0  0  0  0  0  0  0  0  0
    6.3687   -4.6527   63.2983 H   0  0  0  0  0  0  0  0  0  0  0  0
  1  2  1  0  0  0
  1  3  2  0  0  0
  2  4  2  0  0  0
  3  8  1  0  0  0
  4 10  1  0  0  0
  5  6  2  0  0  0
  5 11  1  0  0  0
  6 12  1  0  0  0
  7  9  1  0  0  0
  7 12  2  0  0  0
  8 10  2  0  0  0
  8 13  1  0  0  0
  9 11  2  0  0  0
  9 13  1  0  0  0
 10 15  1  0  0  0
 11 15  1  0  0  0
 12 18  1  0  0  0
 13 14  2  0  0  0
 14 22  1  0  0  0
 24 26  1  0  0  0
 24 29  1  0  0  0
 25 27  1  0  0  0
 25 29  1  0  0  0
 26 30  1  0  0  0
 27 30  1  0  0  0
 28 29  1  0  0  0
 19 21  1  0  0  0
 20 21  1  0  0  0
 22 23  1  0  0  0
 23 30  1  0  0  0
 21 18  1  0  0  0
 16 18  2  0  0  0
 17 18  2  0  0  0
 30 31  1  0  0  0
M  CHG 1  30   1
M  END
> <minimizedAffinity>
7.50518

> <CNNscore>
0.4495736659

> <CNNaffinity>
6.5042448044

> <CNN_VS>
2.9241371155

> <CNNaffinity_variance>
0.9574617147

$$$$



 31 34  0  0  0  0  0  0  0  0999 V2000
   13.4940   -0.7534   61.8580 C   0  0  0  0  0  0  0  0  0  0  0  0
   12.3185   -1.3980   61.4889 C   0  0  0  0  0  0  0  0  0  0  0  0
   14.3479   -0.2431   60.8789 C   0  0  0  0  0  0  0  0  0  0  0  0
   11.9992   -1.5426   60.1400 C   0  0  0  0  0  0  0  0  0  0  0  0
   14.0706   -1.8659   55.3671 C   0  0  0  0  0  0  0  0  0  0  0  0
   15.2778   -1.8595   54.6704 C   0  0  0  0  0  0  0  0  0  0  0  0
   16.2793   -0.5445   56.4287 C   0  0  0  0  0  0  0  0  0  0  0  0
   14.0328   -0.3624   59.5138 C   0  0  0  0  0  0  0  0  0  0  0  0
   15.0647   -0.5234   57.1365 C   0  0  0  0  0  0  0  0  0  0  0  0
   12.8540   -1.0395   59.1477 C   0  0  0  0  0  0  0  0  0  0  0  0
   13.9583   -1.2119   56.6033 C   0  0  0  0  0  0  0  0  0  0  0  0
   16.3823   -1.2039   55.2029 C   0  0  0  0  0  0  0  0  0  0  0  0
   14.9331    0.1605   58.4511 C   0  0  0  0  0  0  0  0  0  0  0  0
   15.5480    1.3446   58.6378 C   0  0  0  0  0  0  0  0  0  0  0  0
   12.3767   -1.2762   57.4389 S   0  0  0  0  0  0  0  0  0  0  0  0
   18.2095   -2.5876   53.9720 O   0  0  0  0  0  0  0  0  0  0  0  0
   17.8266   -0.2083   53.2820 O   0  0  0  0  0  0  0  0  0  0  0  0
   17.9006   -1.2102   54.3397 S   0  0  0  0  0  0  0  0  0  0  0  0
   20.1526   -1.6044   55.8721 C   0  0  0  0  0  0  0  0  0  0  0  0
   19.4898    0.7320   55.4688 C   0  0  0  0  0  0  0  0  0  0  0  0
   19.0403   -0.6822   55.5293 N   0  0  0  0  0  0  0  0  0  0  0  0
   16.4733    1.9652   57.6394 C   0  0  0  0  0  0  0  0  0  0  0  0
   16.4474    1.2525   56.2925 C   0  0  0  0  0  0  0  0  0  0  0  0
   13.0274    2.2354   54.8879 C   0  0  0  0  0  0  0  0  0  0  0  0
   14.6376    2.2864   53.0845 C   0  0  0  0  0  0  0  0  0  0  0  0
   14.0150    1.5103   55.7962 C   0  0  0  0  0  0  0  0  0  0  0  0
   15.6718    1.5628   53.9405 C   0  0  0  0  0  0  0  0  0  0  0  0
   12.2919    2.5817   52.6198 C   0  0  0  0  0  0  0  0  0  0  0  0
   13.2717    1.9136   53.4757 N   0  0  0  0  0  0  0  0  0  0  0  0
   15.4203    1.8797   55.3931 N   0  0  0  0  0  0  0  0  0  0  0  0
   15.5090    2.9007   55.5023 H   0  0  0  0  0  0  0  0  0  0  0  0
  1  2  1  0  0  0
  1  3  2  0  0  0
  2  4  2  0  0  0
  3  8  1  0  0  0
  4 10  1  0  0  0
  5  6  2  0  0  0
  5 11  1  0  0  0
  6 12  1  0  0  0
  7  9  1  0  0  0
  7 12  2  0  0  0
  8 10  2  0  0  0
  8 13  1  0  0  0
  9 11  2  0  0  0
  9 13  1  0  0  0
 10 15  1  0  0  0
 11 15  1  0  0  0
 12 18  1  0  0  0
 13 14  2  0  0  0
 14 22  1  0  0  0
 24 26  1  0  0  0
 24 29  1  0  0  0
 25 27  1  0  0  0
 25 29  1  0  0  0
 26 30  1  0  0  0
 27 30  1  0  0  0
 28 29  1  0  0  0
 19 21  1  0  0  0
 20 21  1  0  0  0
 22 23  1  0  0  0
 23 30  1  0  0  0
 21 18  1  0  0  0
 16 18  2  0  0  0
 17 18  2  0  0  0
 30 31  1  0  0  0
M  CHG 1  30   1
M  END
> <minimizedAffinity>
11.42540

> <CNNscore>
0.4355888665

> <CNNaffinity>
6.8973360062

> <CNN_VS>
3.0044028759

> <CNNaffinity_variance>
1.4541314840

$$$$



 31 34  0  0  0  0  0  0  0  0999 V2000
    9.7484   -0.2694   63.6642 C   0  0  0  0  0  0  0  0  0  0  0  0
    8.9348    0.8349   63.4359 C   0  0  0  0  0  0  0  0  0  0  0  0
   10.8368   -0.5202   62.8273 C   0  0  0  0  0  0  0  0  0  0  0  0
    9.2017    1.6851   62.3642 C   0  0  0  0  0  0  0  0  0  0  0  0
   11.3739    1.8850   57.6295 C   0  0  0  0  0  0  0  0  0  0  0  0
   12.0383    1.1205   56.6720 C   0  0  0  0  0  0  0  0  0  0  0  0
   12.8623   -0.3338   58.4127 C   0  0  0  0  0  0  0  0  0  0  0  0
   11.1332    0.3373   61.7531 C   0  0  0  0  0  0  0  0  0  0  0  0
   12.2151    0.4367   59.3948 C   0  0  0  0  0  0  0  0  0  0  0  0
   10.2892    1.4381   61.5128 C   0  0  0  0  0  0  0  0  0  0  0  0
   11.4472    1.5447   58.9887 C   0  0  0  0  0  0  0  0  0  0  0  0
   12.7774    0.0094   57.0625 C   0  0  0  0  0  0  0  0  0  0  0  0
   12.2789    0.0838   60.8386 C   0  0  0  0  0  0  0  0  0  0  0  0
   13.4418   -0.3611   61.3533 C   0  0  0  0  0  0  0  0  0  0  0  0
   10.5568    2.5716   60.1535 S   0  0  0  0  0  0  0  0  0  0  0  0
   14.9052   -1.3276   56.3893 O   0  0  0  0  0  0  0  0  0  0  0  0
   12.6909   -2.0253   55.4439 O   0  0  0  0  0  0  0  0  0  0  0  0
   13.5956   -0.9601   55.8622 S   0  0  0  0  0  0  0  0  0  0  0  0
   15.1067    0.8627   54.4591 C   0  0  0  0  0  0  0  0  0  0  0  0
   13.3323   -0.2947   53.2050 C   0  0  0  0  0  0  0  0  0  0  0  0
   13.8142    0.1364   54.5420 N   0  0  0  0  0  0  0  0  0  0  0  0
   14.6568   -0.6498   60.5297 C   0  0  0  0  0  0  0  0  0  0  0  0
   15.8527    0.2074   60.9269 C   0  0  0  0  0  0  0  0  0  0  0  0
   17.1566    1.3772   57.5259 C   0  0  0  0  0  0  0  0  0  0  0  0
   18.2841   -0.6806   58.1100 C   0  0  0  0  0  0  0  0  0  0  0  0
   16.1410    1.1800   58.6465 C   0  0  0  0  0  0  0  0  0  0  0  0
   17.3013   -0.9376   59.2474 C   0  0  0  0  0  0  0  0  0  0  0  0
   18.5942    0.2903   55.9268 C   0  0  0  0  0  0  0  0  0  0  0  0
   17.6538    0.0877   57.0284 N   0  0  0  0  0  0  0  0  0  0  0  0
   16.7779    0.3820   59.7561 N   0  0  0  0  0  0  0  0  0  0  0  0
   17.5886    0.9225   60.0920 H   0  0  0  0  0  0  0  0  0  0  0  0
  1  2  1  0  0  0
  1  3  2  0  0  0
  2  4  2  0  0  0
  3  8  1  0  0  0
  4 10  1  0  0  0
  5  6  2  0  0  0
  5 11  1  0  0  0
  6 12  1  0  0  0
  7  9  1  0  0  0
  7 12  2  0  0  0
  8 10  2  0  0  0
  8 13  1  0  0  0
  9 11  2  0  0  0
  9 13  1  0  0  0
 10 15  1  0  0  0
 11 15  1  0  0  0
 12 18  1  0  0  0
 13 14  2  0  0  0
 14 22  1  0  0  0
 24 26  1  0  0  0
 24 29  1  0  0  0
 25 27  1  0  0  0
 25 29  1  0  0  0
 26 30  1  0  0  0
 27 30  1  0  0  0
 28 29  1  0  0  0
 19 21  1  0  0  0
 20 21  1  0  0  0
 22 23  1  0  0  0
 23 30  1  0  0  0
 21 18  1  0  0  0
 16 18  2  0  0  0
 17 18  2  0  0  0
 30 31  1  0  0  0
M  CHG 1  30   1
M  END
> <minimizedAffinity>
-10.19055

> <CNNscore>
0.4240434766

> <CNNaffinity>
7.1149711609

> <CNN_VS>
3.0170571804

> <CNNaffinity_variance>
0.3096739054

$$$$



 31 34  0  0  0  0  0  0  0  0999 V2000
   14.7472   -0.2195   61.3555 C   0  0  0  0  0  0  0  0  0  0  0  0
   14.8429   -0.5558   62.7014 C   0  0  0  0  0  0  0  0  0  0  0  0
   13.5020   -0.2082   60.7251 C   0  0  0  0  0  0  0  0  0  0  0  0
   13.6951   -0.8913   63.4172 C   0  0  0  0  0  0  0  0  0  0  0  0
    8.8852   -2.8405   62.9266 C   0  0  0  0  0  0  0  0  0  0  0  0
    7.9713   -3.3401   62.0003 C   0  0  0  0  0  0  0  0  0  0  0  0
    9.0171   -2.0256   60.2677 C   0  0  0  0  0  0  0  0  0  0  0  0
   12.3308   -0.5249   61.4360 C   0  0  0  0  0  0  0  0  0  0  0  0
    9.9351   -1.4958   61.1915 C   0  0  0  0  0  0  0  0  0  0  0  0
   12.4394   -0.8898   62.7914 C   0  0  0  0  0  0  0  0  0  0  0  0
    9.8752   -1.9290   62.5298 C   0  0  0  0  0  0  0  0  0  0  0  0
    8.0403   -2.9371   60.6714 C   0  0  0  0  0  0  0  0  0  0  0  0
   10.9939   -0.5337   60.7835 C   0  0  0  0  0  0  0  0  0  0  0  0
   10.6949    0.4292   59.8900 C   0  0  0  0  0  0  0  0  0  0  0  0
   11.0165   -1.3433   63.7782 S   0  0  0  0  0  0  0  0  0  0  0  0
    6.4286   -2.4706   58.6831 O   0  0  0  0  0  0  0  0  0  0  0  0
    7.5308   -4.7163   58.8433 O   0  0  0  0  0  0  0  0  0  0  0  0
    6.9073   -3.5760   59.5058 S   0  0  0  0  0  0  0  0  0  0  0  0
    4.2325   -3.6844   60.1448 C   0  0  0  0  0  0  0  0  0  0  0  0
    5.6208   -5.5753   60.8916 C   0  0  0  0  0  0  0  0  0  0  0  0
    5.6016   -4.1465   60.4870 N   0  0  0  0  0  0  0  0  0  0  0  0
    9.3845    0.5181   59.1737 C   0  0  0  0  0  0  0  0  0  0  0  0
    8.1917    0.4247   60.1178 C   0  0  0  0  0  0  0  0  0  0  0  0
   10.1439    2.1056   62.9460 C   0  0  0  0  0  0  0  0  0  0  0  0
    7.9377    1.5500   63.7654 C   0  0  0  0  0  0  0  0  0  0  0  0
    9.9358    1.2490   61.7014 C   0  0  0  0  0  0  0  0  0  0  0  0
    7.6657    0.6773   62.5446 C   0  0  0  0  0  0  0  0  0  0  0  0
    9.6132    2.3912   65.2788 C   0  0  0  0  0  0  0  0  0  0  0  0
    9.3715    1.5859   64.0821 N   0  0  0  0  0  0  0  0  0  0  0  0
    8.4642    1.1984   61.3764 N   0  0  0  0  0  0  0  0  0  0  0  0
    8.1576    2.1675   61.2055 H   0  0  0  0  0  0  0  0  0  0  0  0
  1  2  1  0  0  0
  1  3  2  0  0  0
  2  4  2  0  0  0
  3  8  1  0  0  0
  4 10  1  0  0  0
  5  6  2  0  0  0
  5 11  1  0  0  0
  6 12  1  0  0  0
  7  9  1  0  0  0
  7 12  2  0  0  0
  8 10  2  0  0  0
  8 13  1  0  0  0
  9 11  2  0  0  0
  9 13  1  0  0  0
 10 15  1  0  0  0
 11 15  1  0  0  0
 12 18  1  0  0  0
 13 14  2  0  0  0
 14 22  1  0  0  0
 24 26  1  0  0  0
 24 29  1  0  0  0
 25 27  1  0  0  0
 25 29  1  0  0  0
 26 30  1  0  0  0
 27 30  1  0  0  0
 28 29  1  0  0  0
 19 21  1  0  0  0
 20 21  1  0  0  0
 22 23  1  0  0  0
 23 30  1  0  0  0
 21 18  1  0  0  0
 16 18  2  0  0  0
 17 18  2  0  0  0
 30 31  1  0  0  0
M  CHG 1  30   1
M  END
> <minimizedAffinity>
9.21801

> <CNNscore>
0.3963996470

> <CNNaffinity>
6.5236091614

> <CNN_VS>
2.5859563351

> <CNNaffinity_variance>
0.8468453288

$$$$



 31 34  0  0  0  0  0  0  0  0999 V2000
   13.1486   -0.8132   62.3964 C   0  0  0  0  0  0  0  0  0  0  0  0
   12.0976   -0.5018   61.5407 C   0  0  0  0  0  0  0  0  0  0  0  0
   14.4618   -0.5209   62.0250 C   0  0  0  0  0  0  0  0  0  0  0  0
   12.3583    0.0932   60.3076 C   0  0  0  0  0  0  0  0  0  0  0  0
   15.9762    0.5845   56.5867 C   0  0  0  0  0  0  0  0  0  0  0  0
   17.2663    0.2003   56.2252 C   0  0  0  0  0  0  0  0  0  0  0  0
   17.8352   -0.0627   58.5557 C   0  0  0  0  0  0  0  0  0  0  0  0
   14.7425    0.0970   60.7935 C   0  0  0  0  0  0  0  0  0  0  0  0
   16.5446    0.3416   58.9403 C   0  0  0  0  0  0  0  0  0  0  0  0
   13.6753    0.3849   59.9217 C   0  0  0  0  0  0  0  0  0  0  0  0
   15.6040    0.6468   57.9381 C   0  0  0  0  0  0  0  0  0  0  0  0
   18.1932   -0.1279   57.2082 C   0  0  0  0  0  0  0  0  0  0  0  0
   16.1344    0.4059   60.3688 C   0  0  0  0  0  0  0  0  0  0  0  0
   17.0094    0.8720   61.2811 C   0  0  0  0  0  0  0  0  0  0  0  0
   13.9255    1.1391   58.3178 S   0  0  0  0  0  0  0  0  0  0  0  0
   19.6984   -1.5321   55.6173 O   0  0  0  0  0  0  0  0  0  0  0  0
   20.6295    0.5685   56.6194 O   0  0  0  0  0  0  0  0  0  0  0  0
   19.8047   -0.6269   56.7563 S   0  0  0  0  0  0  0  0  0  0  0  0
   20.9881   -2.8408   57.8848 C   0  0  0  0  0  0  0  0  0  0  0  0
   21.0255   -0.7717   59.2182 C   0  0  0  0  0  0  0  0  0  0  0  0
   20.3473   -1.5242   58.1323 N   0  0  0  0  0  0  0  0  0  0  0  0
   18.4315    1.2143   60.9672 C   0  0  0  0  0  0  0  0  0  0  0  0
   19.0279    2.2093   61.9557 C   0  0  0  0  0  0  0  0  0  0  0  0
   22.6193    1.1813   62.7803 C   0  0  0  0  0  0  0  0  0  0  0  0
   21.1147   -0.4162   63.7961 C   0  0  0  0  0  0  0  0  0  0  0  0
   21.4855    1.7745   61.9504 C   0  0  0  0  0  0  0  0  0  0  0  0
   19.9374    0.1306   62.9956 C   0  0  0  0  0  0  0  0  0  0  0  0
   23.4923   -0.8050   63.8281 C   0  0  0  0  0  0  0  0  0  0  0  0
   22.3783   -0.2387   63.0684 N   0  0  0  0  0  0  0  0  0  0  0  0
   20.1830    1.5859   62.6864 N   0  0  0  0  0  0  0  0  0  0  0  0
   20.2695    2.0787   63.5876 H   0  0  0  0  0  0  0  0  0  0  0  0
  1  2  1  0  0  0
  1  3  2  0  0  0
  2  4  2  0  0  0
  3  8  1  0  0  0
  4 10  1  0  0  0
  5  6  2  0  0  0
  5 11  1  0  0  0
  6 12  1  0  0  0
  7  9  1  0  0  0
  7 12  2  0  0  0
  8 10  2  0  0  0
  8 13  1  0  0  0
  9 11  2  0  0  0
  9 13  1  0  0  0
 10 15  1  0  0  0
 11 15  1  0  0  0
 12 18  1  0  0  0
 13 14  2  0  0  0
 14 22  1  0  0  0
 24 26  1  0  0  0
 24 29  1  0  0  0
 25 27  1  0  0  0
 25 29  1  0  0  0
 26 30  1  0  0  0
 27 30  1  0  0  0
 28 29  1  0  0  0
 19 21  1  0  0  0
 20 21  1  0  0  0
 22 23  1  0  0  0
 23 30  1  0  0  0
 21 18  1  0  0  0
 16 18  2  0  0  0
 17 18  2  0  0  0
 30 31  1  0  0  0
M  CHG 1  30   1
M  END
> <minimizedAffinity>
13.61961

> <CNNscore>
0.3848021924

> <CNNaffinity>
7.1165986061

> <CNN_VS>
2.7384827137

> <CNNaffinity_variance>
0.2048758268

$$$$



 31 34  0  0  0  0  0  0  0  0999 V2000
    3.4469   -4.9356   60.3781 C   0  0  0  0  0  0  0  0  0  0  0  0
    3.2475   -5.5382   61.6154 C   0  0  0  0  0  0  0  0  0  0  0  0
    4.6696   -4.3295   60.0852 C   0  0  0  0  0  0  0  0  0  0  0  0
    4.2666   -5.5271   62.5661 C   0  0  0  0  0  0  0  0  0  0  0  0
    8.4713   -2.8860   64.1537 C   0  0  0  0  0  0  0  0  0  0  0  0
    9.2546   -1.7653   63.8832 C   0  0  0  0  0  0  0  0  0  0  0  0
    8.5901   -1.8671   61.5655 C   0  0  0  0  0  0  0  0  0  0  0  0
    5.7159   -4.3255   61.0245 C   0  0  0  0  0  0  0  0  0  0  0  0
    7.8102   -3.0100   61.8152 C   0  0  0  0  0  0  0  0  0  0  0  0
    5.4969   -4.9144   62.2843 C   0  0  0  0  0  0  0  0  0  0  0  0
    7.7385   -3.5064   63.1307 C   0  0  0  0  0  0  0  0  0  0  0  0
    9.3099   -1.2533   62.5917 C   0  0  0  0  0  0  0  0  0  0  0  0
    7.0230   -3.6740   60.7416 C   0  0  0  0  0  0  0  0  0  0  0  0
    7.5627   -3.7946   59.5130 C   0  0  0  0  0  0  0  0  0  0  0  0
    6.7493   -4.9343   63.5631 S   0  0  0  0  0  0  0  0  0  0  0  0
   11.6720   -0.2527   62.1582 O   0  0  0  0  0  0  0  0  0  0  0  0
    9.6796    0.8614   61.1225 O   0  0  0  0  0  0  0  0  0  0  0  0
   10.2767    0.1617   62.2547 S   0  0  0  0  0  0  0  0  0  0  0  0
    8.7346    1.1622   64.3030 C   0  0  0  0  0  0  0  0  0  0  0  0
   11.1651    1.0896   64.6882 C   0  0  0  0  0  0  0  0  0  0  0  0
   10.0799    1.1294   63.6751 N   0  0  0  0  0  0  0  0  0  0  0  0
    8.8689   -3.1822   59.1171 C   0  0  0  0  0  0  0  0  0  0  0  0
    8.7501   -2.2890   57.8879 C   0  0  0  0  0  0  0  0  0  0  0  0
    7.0218   -3.5964   54.7354 C   0  0  0  0  0  0  0  0  0  0  0  0
    5.3665   -2.4996   56.1154 C   0  0  0  0  0  0  0  0  0  0  0  0
    8.1560   -3.0208   55.5769 C   0  0  0  0  0  0  0  0  0  0  0  0
    6.4526   -1.8922   56.9969 C   0  0  0  0  0  0  0  0  0  0  0  0
    4.7881   -3.2517   53.9006 C   0  0  0  0  0  0  0  0  0  0  0  0
    5.8517   -2.7086   54.7448 N   0  0  0  0  0  0  0  0  0  0  0  0
    7.6618   -2.7931   56.9833 N   0  0  0  0  0  0  0  0  0  0  0  0
    7.3643   -3.7083   57.3524 H   0  0  0  0  0  0  0  0  0  0  0  0
  1  2  1  0  0  0
  1  3  2  0  0  0
  2  4  2  0  0  0
  3  8  1  0  0  0
  4 10  1  0  0  0
  5  6  2  0  0  0
  5 11  1  0  0  0
  6 12  1  0  0  0
  7  9  1  0  0  0
  7 12  2  0  0  0
  8 10  2  0  0  0
  8 13  1  0  0  0
  9 11  2  0  0  0
  9 13  1  0  0  0
 10 15  1  0  0  0
 11 15  1  0  0  0
 12 18  1  0  0  0
 13 14  2  0  0  0
 14 22  1  0  0  0
 24 26  1  0  0  0
 24 29  1  0  0  0
 25 27  1  0  0  0
 25 29  1  0  0  0
 26 30  1  0  0  0
 27 30  1  0  0  0
 28 29  1  0  0  0
 19 21  1  0  0  0
 20 21  1  0  0  0
 22 23  1  0  0  0
 23 30  1  0  0  0
 21 18  1  0  0  0
 16 18  2  0  0  0
 17 18  2  0  0  0
 30 31  1  0  0  0
M  CHG 1  30   1
M  END
> <minimizedAffinity>
-3.65741

> <CNNscore>
0.3452270031

> <CNNaffinity>
6.1693329811

> <CNN_VS>
2.1298203468

> <CNNaffinity_variance>
0.0210288651

$$$$



 31 34  0  0  0  0  0  0  0  0999 V2000
    7.4384   -1.3469   57.3957 C   0  0  0  0  0  0  0  0  0  0  0  0
    6.5985   -2.4439   57.5525 C   0  0  0  0  0  0  0  0  0  0  0  0
    8.3730   -1.0356   58.3845 C   0  0  0  0  0  0  0  0  0  0  0  0
    6.6842   -3.2260   58.7029 C   0  0  0  0  0  0  0  0  0  0  0  0
    8.0412   -3.1215   63.7351 C   0  0  0  0  0  0  0  0  0  0  0  0
    8.5375   -2.2946   64.7415 C   0  0  0  0  0  0  0  0  0  0  0  0
    9.6383   -0.9382   63.0765 C   0  0  0  0  0  0  0  0  0  0  0  0
    8.4873   -1.8245   59.5428 C   0  0  0  0  0  0  0  0  0  0  0  0
    9.1632   -1.7723   62.0492 C   0  0  0  0  0  0  0  0  0  0  0  0
    7.6154   -2.9177   59.7061 C   0  0  0  0  0  0  0  0  0  0  0  0
    8.3388   -2.8620   62.3888 C   0  0  0  0  0  0  0  0  0  0  0  0
    9.3308   -1.2012   64.4123 C   0  0  0  0  0  0  0  0  0  0  0  0
    9.4654   -1.5054   60.6173 C   0  0  0  0  0  0  0  0  0  0  0  0
   10.6974   -1.0800   60.2762 C   0  0  0  0  0  0  0  0  0  0  0  0
    7.6541   -3.9655   61.1569 S   0  0  0  0  0  0  0  0  0  0  0  0
   10.2610   -0.9761   66.8315 O   0  0  0  0  0  0  0  0  0  0  0  0
   10.9875    0.6833   65.0988 O   0  0  0  0  0  0  0  0  0  0  0  0
    9.9385   -0.1536   65.6707 S   0  0  0  0  0  0  0  0  0  0  0  0
    7.7922    1.3991   64.9239 C   0  0  0  0  0  0  0  0  0  0  0  0
    7.7058    0.4109   67.1770 C   0  0  0  0  0  0  0  0  0  0  0  0
    8.5774    0.8429   66.0549 N   0  0  0  0  0  0  0  0  0  0  0  0
   11.7590   -0.7303   61.2706 C   0  0  0  0  0  0  0  0  0  0  0  0
   12.5847    0.4788   60.8474 C   0  0  0  0  0  0  0  0  0  0  0  0
   16.0679   -0.4602   59.5743 C   0  0  0  0  0  0  0  0  0  0  0  0
   14.7727    0.3752   57.7110 C   0  0  0  0  0  0  0  0  0  0  0  0
   15.0260    0.0414   60.5689 C   0  0  0  0  0  0  0  0  0  0  0  0
   13.6933    0.9010   58.6514 C   0  0  0  0  0  0  0  0  0  0  0  0
   17.1200   -0.0946   57.4378 C   0  0  0  0  0  0  0  0  0  0  0  0
   16.0884    0.3716   58.3638 N   0  0  0  0  0  0  0  0  0  0  0  0
   13.6738    0.0584   59.9018 N   0  0  0  0  0  0  0  0  0  0  0  0
   13.4649   -0.9091   59.6144 H   0  0  0  0  0  0  0  0  0  0  0  0
  1  2  1  0  0  0
  1  3  2  0  0  0
  2  4  2  0  0  0
  3  8  1  0  0  0
  4 10  1  0  0  0
  5  6  2  0  0  0
  5 11  1  0  0  0
  6 12  1  0  0  0
  7  9  1  0  0  0
  7 12  2  0  0  0
  8 10  2  0  0  0
  8 13  1  0  0  0
  9 11  2  0  0  0
  9 13  1  0  0  0
 10 15  1  0  0  0
 11 15  1  0  0  0
 12 18  1  0  0  0
 13 14  2  0  0  0
 14 22  1  0  0  0
 24 26  1  0  0  0
 24 29  1  0  0  0
 25 27  1  0  0  0
 25 29  1  0  0  0
 26 30  1  0  0  0
 27 30  1  0  0  0
 28 29  1  0  0  0
 19 21  1  0  0  0
 20 21  1  0  0  0
 22 23  1  0  0  0
 23 30  1  0  0  0
 21 18  1  0  0  0
 16 18  2  0  0  0
 17 18  2  0  0  0
 30 31  1  0  0  0
M  CHG 1  30   1
M  END
> <minimizedAffinity>
-9.00322

> <CNNscore>
0.3374418616

> <CNNaffinity>
6.9631018639

> <CNN_VS>
2.3496420383

> <CNNaffinity_variance>
0.1027928591

$$$$



 31 34  0  0  0  0  0  0  0  0999 V2000
   16.7018   -0.6045   54.8930 C   0  0  0  0  0  0  0  0  0  0  0  0
   17.7221    0.0616   55.5630 C   0  0  0  0  0  0  0  0  0  0  0  0
   15.4046   -0.5938   55.4079 C   0  0  0  0  0  0  0  0  0  0  0  0
   17.4496    0.7313   56.7546 C   0  0  0  0  0  0  0  0  0  0  0  0
   14.2428    0.8110   60.8638 C   0  0  0  0  0  0  0  0  0  0  0  0
   13.1407    0.1758   61.4333 C   0  0  0  0  0  0  0  0  0  0  0  0
   12.4146   -0.5193   59.2394 C   0  0  0  0  0  0  0  0  0  0  0  0
   15.1068    0.0927   56.5984 C   0  0  0  0  0  0  0  0  0  0  0  0
   13.5096    0.1324   58.6451 C   0  0  0  0  0  0  0  0  0  0  0  0
   16.1505    0.7423   57.2844 C   0  0  0  0  0  0  0  0  0  0  0  0
   14.4410    0.7848   59.4751 C   0  0  0  0  0  0  0  0  0  0  0  0
   12.2303   -0.4930   60.6226 C   0  0  0  0  0  0  0  0  0  0  0  0
   13.7355    0.1072   57.1749 C   0  0  0  0  0  0  0  0  0  0  0  0
   12.6785    0.2239   56.3477 C   0  0  0  0  0  0  0  0  0  0  0  0
   15.8866    1.6160   58.8243 S   0  0  0  0  0  0  0  0  0  0  0  0
   10.0372   -1.8442   60.2580 O   0  0  0  0  0  0  0  0  0  0  0  0
   11.3531   -2.2211   62.3580 O   0  0  0  0  0  0  0  0  0  0  0  0
   10.8585   -1.3049   61.3363 S   0  0  0  0  0  0  0  0  0  0  0  0
    9.4870    1.0798   61.2522 C   0  0  0  0  0  0  0  0  0  0  0  0
    9.0178   -0.3937   63.1677 C   0  0  0  0  0  0  0  0  0  0  0  0
    9.9914   -0.0229   62.1093 N   0  0  0  0  0  0  0  0  0  0  0  0
   11.2578    0.2488   56.8158 C   0  0  0  0  0  0  0  0  0  0  0  0
   10.2929   -0.3435   55.7955 C   0  0  0  0  0  0  0  0  0  0  0  0
    7.7350   -0.9719   58.5699 C   0  0  0  0  0  0  0  0  0  0  0  0
    7.4883   -2.7006   56.8971 C   0  0  0  0  0  0  0  0  0  0  0  0
    9.0546   -0.5167   57.9555 C   0  0  0  0  0  0  0  0  0  0  0  0
    8.8008   -2.2956   56.2343 C   0  0  0  0  0  0  0  0  0  0  0  0
    6.2604   -2.8358   58.9657 C   0  0  0  0  0  0  0  0  0  0  0  0
    7.5075   -2.4040   58.3356 N   0  0  0  0  0  0  0  0  0  0  0  0
    9.0466   -0.8283   56.4802 N   0  0  0  0  0  0  0  0  0  0  0  0
    8.2563   -0.3129   56.0654 H   0  0  0  0  0  0  0  0  0  0  0  0
  1  2  1  0  0  0
  1  3  2  0  0  0
  2  4  2  0  0  0
  3  8  1  0  0  0
  4 10  1  0  0  0
  5  6  2  0  0  0
  5 11  1  0  0  0
  6 12  1  0  0  0
  7  9  1  0  0  0
  7 12  2  0  0  0
  8 10  2  0  0  0
  8 13  1  0  0  0
  9 11  2  0  0  0
  9 13  1  0  0  0
 10 15  1  0  0  0
 11 15  1  0  0  0
 12 18  1  0  0  0
 13 14  2  0  0  0
 14 22  1  0  0  0
 24 26  1  0  0  0
 24 29  1  0  0  0
 25 27  1  0  0  0
 25 29  1  0  0  0
 26 30  1  0  0  0
 27 30  1  0  0  0
 28 29  1  0  0  0
 19 21  1  0  0  0
 20 21  1  0  0  0
 22 23  1  0  0  0
 23 30  1  0  0  0
 21 18  1  0  0  0
 16 18  2  0  0  0
 17 18  2  0  0  0
 30 31  1  0  0  0
M  CHG 1  30   1
M  END
> <minimizedAffinity>
-3.68707

> <CNNscore>
0.2987908423

> <CNNaffinity>
6.4766693115

> <CNN_VS>
1.9351694584

> <CNNaffinity_variance>
0.3242766857

$$$$



 22 24  0  0  0  0  0  0  0  0999 V2000
   11.9095   -1.1413   55.2709 C   0  0  0  0  0  0  0  0  0  0  0  0
   12.2576   -0.8499   53.9607 C   0  0  0  0  0  0  0  0  0  0  0  0
   12.8442   -0.9727   56.2960 C   0  0  0  0  0  0  0  0  0  0  0  0
   13.5417   -0.3968   53.6777 C   0  0  0  0  0  0  0  0  0  0  0  0
   18.4755   -0.0348   55.4757 C   0  0  0  0  0  0  0  0  0  0  0  0
   19.3250   -0.3315   56.5363 C   0  0  0  0  0  0  0  0  0  0  0  0
   17.4013   -0.6376   57.9568 C   0  0  0  0  0  0  0  0  0  0  0  0
   14.1522   -0.5029   56.0457 C   0  0  0  0  0  0  0  0  0  0  0  0
   16.5107   -0.3293   56.9053 C   0  0  0  0  0  0  0  0  0  0  0  0
   14.4878   -0.2302   54.7047 C   0  0  0  0  0  0  0  0  0  0  0  0
   17.0801   -0.0394   55.6494 C   0  0  0  0  0  0  0  0  0  0  0  0
   18.7873   -0.6364   57.7774 C   0  0  0  0  0  0  0  0  0  0  0  0
   15.1043   -0.3433   57.0841 N   0  0  0  0  0  0  0  0  0  0  0  0
   16.0926    0.3782   54.2264 S   0  0  0  0  0  0  0  0  0  0  0  0
   19.8280   -1.0037   59.0987 Cl  0  0  0  0  0  0  0  0  0  0  0  0
   14.5968   -0.2557   58.4595 C   0  0  0  0  0  0  0  0  0  0  0  0
   14.3349    1.1955   58.8536 C   0  0  0  0  0  0  0  0  0  0  0  0
   12.8920    1.6125   58.5983 C   0  0  0  0  0  0  0  0  0  0  0  0
   11.1373    2.8388   59.8706 C   0  0  0  0  0  0  0  0  0  0  0  0
   11.6302    0.4579   60.4082 C   0  0  0  0  0  0  0  0  0  0  0  0
   12.1941    1.7619   59.8988 N   0  0  0  0  0  0  0  0  0  0  0  0
   12.8921    2.0647   60.5998 H   0  0  0  0  0  0  0  0  0  0  0  0
  1  2  1  0  0  0
  1  3  2  0  0  0
  2  4  2  0  0  0
  3  8  1  0  0  0
  4 10  1  0  0  0
  5  6  2  0  0  0
  5 11  1  0  0  0
  6 12  1  0  0  0
  7  9  1  0  0  0
  7 12  2  0  0  0
  8 10  2  0  0  0
  8 13  1  0  0  0
  9 11  2  0  0  0
  9 13  1  0  0  0
 10 14  1  0  0  0
 11 14  1  0  0  0
 12 15  1  0  0  0
 19 21  1  0  0  0
 20 21  1  0  0  0
 17 16  1  0  0  0
 17 18  1  0  0  0
 16 13  1  0  0  0
 18 21  1  0  0  0
 21 22  1  0  0  0
M  CHG 1  21   1
M  END
> <minimizedAffinity>
-7.18356

> <CNNscore>
0.5966759324

> <CNNaffinity>
6.4834108353

> <CNN_VS>
3.8684952259

> <CNNaffinity_variance>
0.1205090657

$$$$



 22 24  0  0  0  0  0  0  0  0999 V2000
    9.3147   -2.6625   58.5330 C   0  0  0  0  0  0  0  0  0  0  0  0
    9.7707   -1.3797   58.2702 C   0  0  0  0  0  0  0  0  0  0  0  0
    8.9353   -3.0168   59.8305 C   0  0  0  0  0  0  0  0  0  0  0  0
    9.8526   -0.4560   59.3068 C   0  0  0  0  0  0  0  0  0  0  0  0
    9.9845    0.1526   64.5335 C   0  0  0  0  0  0  0  0  0  0  0  0
    9.9598   -0.5080   65.7572 C   0  0  0  0  0  0  0  0  0  0  0  0
    9.0565   -2.4545   64.6582 C   0  0  0  0  0  0  0  0  0  0  0  0
    8.9940   -2.1005   60.9035 C   0  0  0  0  0  0  0  0  0  0  0  0
    9.0565   -1.8094   63.4021 C   0  0  0  0  0  0  0  0  0  0  0  0
    9.4769   -0.8087   60.6153 C   0  0  0  0  0  0  0  0  0  0  0  0
    9.5458   -0.4887   63.3615 C   0  0  0  0  0  0  0  0  0  0  0  0
    9.4983   -1.8140   65.8192 C   0  0  0  0  0  0  0  0  0  0  0  0
    8.6204   -2.4636   62.2221 N   0  0  0  0  0  0  0  0  0  0  0  0
    9.6019    0.4633   61.8564 S   0  0  0  0  0  0  0  0  0  0  0  0
    9.4610   -2.6422   67.3280 Cl  0  0  0  0  0  0  0  0  0  0  0  0
    7.7723   -3.6518   62.3820 C   0  0  0  0  0  0  0  0  0  0  0  0
    6.3894   -3.2696   62.9030 C   0  0  0  0  0  0  0  0  0  0  0  0
    5.5459   -4.4893   63.2524 C   0  0  0  0  0  0  0  0  0  0  0  0
    4.1695   -2.9104   64.5994 C   0  0  0  0  0  0  0  0  0  0  0  0
    3.9178   -5.3670   64.9197 C   0  0  0  0  0  0  0  0  0  0  0  0
    4.8621   -4.2502   64.5470 N   0  0  0  0  0  0  0  0  0  0  0  0
    5.5845   -4.2277   65.2872 H   0  0  0  0  0  0  0  0  0  0  0  0
  1  2  1  0  0  0
  1  3  2  0  0  0
  2  4  2  0  0  0
  3  8  1  0  0  0
  4 10  1  0  0  0
  5  6  2  0  0  0
  5 11  1  0  0  0
  6 12  1  0  0  0
  7  9  1  0  0  0
  7 12  2  0  0  0
  8 10  2  0  0  0
  8 13  1  0  0  0
  9 11  2  0  0  0
  9 13  1  0  0  0
 10 14  1  0  0  0
 11 14  1  0  0  0
 12 15  1  0  0  0
 19 21  1  0  0  0
 20 21  1  0  0  0
 17 16  1  0  0  0
 17 18  1  0  0  0
 16 13  1  0  0  0
 18 21  1  0  0  0
 21 22  1  0  0  0
M  CHG 1  21   1
M  END
> <minimizedAffinity>
-6.84810

> <CNNscore>
0.5273708105

> <CNNaffinity>
5.9815263748

> <CNN_VS>
3.1544823647

> <CNNaffinity_variance>
0.0594147071

$$$$



 22 24  0  0  0  0  0  0  0  0999 V2000
   14.5767   -0.5551   54.6123 C   0  0  0  0  0  0  0  0  0  0  0  0
   13.4720   -1.2781   54.1885 C   0  0  0  0  0  0  0  0  0  0  0  0
   14.5194    0.1739   55.8033 C   0  0  0  0  0  0  0  0  0  0  0  0
   12.3103   -1.2652   54.9532 C   0  0  0  0  0  0  0  0  0  0  0  0
    9.6841    1.2553   58.7553 C   0  0  0  0  0  0  0  0  0  0  0  0
    9.7101    2.3325   59.6349 C   0  0  0  0  0  0  0  0  0  0  0  0
   12.0939    2.5015   59.3156 C   0  0  0  0  0  0  0  0  0  0  0  0
   13.3605    0.1989   56.6099 C   0  0  0  0  0  0  0  0  0  0  0  0
   12.1052    1.4034   58.4278 C   0  0  0  0  0  0  0  0  0  0  0  0
   12.2455   -0.5291   56.1497 C   0  0  0  0  0  0  0  0  0  0  0  0
   10.8657    0.7948   58.1477 C   0  0  0  0  0  0  0  0  0  0  0  0
   10.9158    2.9583   59.9129 C   0  0  0  0  0  0  0  0  0  0  0  0
   13.2984    0.9482   57.8119 N   0  0  0  0  0  0  0  0  0  0  0  0
   10.7141   -0.6059   57.0570 S   0  0  0  0  0  0  0  0  0  0  0  0
   10.9618    4.2915   61.0011 Cl  0  0  0  0  0  0  0  0  0  0  0  0
   14.5711    1.3432   58.4293 C   0  0  0  0  0  0  0  0  0  0  0  0
   15.0087    0.3243   59.4782 C   0  0  0  0  0  0  0  0  0  0  0  0
   13.8303   -0.4402   60.0683 C   0  0  0  0  0  0  0  0  0  0  0  0
   12.1928   -0.0656   61.9067 C   0  0  0  0  0  0  0  0  0  0  0  0
   14.5150   -0.7919   62.4365 C   0  0  0  0  0  0  0  0  0  0  0  0
   13.6392   -0.0216   61.4786 N   0  0  0  0  0  0  0  0  0  0  0  0
   13.9307    0.9678   61.5575 H   0  0  0  0  0  0  0  0  0  0  0  0
  1  2  1  0  0  0
  1  3  2  0  0  0
  2  4  2  0  0  0
  3  8  1  0  0  0
  4 10  1  0  0  0
  5  6  2  0  0  0
  5 11  1  0  0  0
  6 12  1  0  0  0
  7  9  1  0  0  0
  7 12  2  0  0  0
  8 10  2  0  0  0
  8 13  1  0  0  0
  9 11  2  0  0  0
  9 13  1  0  0  0
 10 14  1  0  0  0
 11 14  1  0  0  0
 12 15  1  0  0  0
 19 21  1  0  0  0
 20 21  1  0  0  0
 17 16  1  0  0  0
 17 18  1  0  0  0
 16 13  1  0  0  0
 18 21  1  0  0  0
 21 22  1  0  0  0
M  CHG 1  21   1
M  END
> <minimizedAffinity>
-7.19295

> <CNNscore>
0.4569870234

> <CNNaffinity>
6.1757044792

> <CNN_VS>
2.8222167492

> <CNNaffinity_variance>
0.5930751562

$$$$



 22 24  0  0  0  0  0  0  0  0999 V2000
    8.8107   -1.9062   59.5377 C   0  0  0  0  0  0  0  0  0  0  0  0
    8.0819   -2.2726   58.4164 C   0  0  0  0  0  0  0  0  0  0  0  0
    8.4456   -2.3903   60.7969 C   0  0  0  0  0  0  0  0  0  0  0  0
    6.9858   -3.1170   58.5576 C   0  0  0  0  0  0  0  0  0  0  0  0
    3.4927   -5.1094   61.9539 C   0  0  0  0  0  0  0  0  0  0  0  0
    3.0782   -5.1266   63.2815 C   0  0  0  0  0  0  0  0  0  0  0  0
    5.2196   -4.2312   63.9339 C   0  0  0  0  0  0  0  0  0  0  0  0
    7.3463   -3.2588   60.9744 C   0  0  0  0  0  0  0  0  0  0  0  0
    5.6768   -4.2118   62.5980 C   0  0  0  0  0  0  0  0  0  0  0  0
    6.6110   -3.6029   59.8230 C   0  0  0  0  0  0  0  0  0  0  0  0
    4.7758   -4.6502   61.6073 C   0  0  0  0  0  0  0  0  0  0  0  0
    3.9413   -4.6841   64.2722 C   0  0  0  0  0  0  0  0  0  0  0  0
    6.9687   -3.7402   62.2534 N   0  0  0  0  0  0  0  0  0  0  0  0
    5.2048   -4.6956   59.8786 S   0  0  0  0  0  0  0  0  0  0  0  0
    3.4411   -4.7019   65.9194 Cl  0  0  0  0  0  0  0  0  0  0  0  0
    7.9740   -3.6806   63.3225 C   0  0  0  0  0  0  0  0  0  0  0  0
    7.8961   -2.3531   64.0719 C   0  0  0  0  0  0  0  0  0  0  0  0
    9.2552   -1.9026   64.5924 C   0  0  0  0  0  0  0  0  0  0  0  0
    8.3514    0.4027   64.8582 C   0  0  0  0  0  0  0  0  0  0  0  0
    8.3902   -1.1515   66.8034 C   0  0  0  0  0  0  0  0  0  0  0  0
    9.0648   -0.7549   65.5129 N   0  0  0  0  0  0  0  0  0  0  0  0
   10.0007   -0.4017   65.7765 H   0  0  0  0  0  0  0  0  0  0  0  0
  1  2  1  0  0  0
  1  3  2  0  0  0
  2  4  2  0  0  0
  3  8  1  0  0  0
  4 10  1  0  0  0
  5  6  2  0  0  0
  5 11  1  0  0  0
  6 12  1  0  0  0
  7  9  1  0  0  0
  7 12  2  0  0  0
  8 10  2  0  0  0
  8 13  1  0  0  0
  9 11  2  0  0  0
  9 13  1  0  0  0
 10 14  1  0  0  0
 11 14  1  0  0  0
 12 15  1  0  0  0
 19 21  1  0  0  0
 20 21  1  0  0  0
 17 16  1  0  0  0
 17 18  1  0  0  0
 16 13  1  0  0  0
 18 21  1  0  0  0
 21 22  1  0  0  0
M  CHG 1  21   1
M  END
> <minimizedAffinity>
-6.03760

> <CNNscore>
0.4392289519

> <CNNaffinity>
5.6199865341

> <CNN_VS>
2.4684607983

> <CNNaffinity_variance>
0.2187208831

$$$$



 22 24  0  0  0  0  0  0  0  0999 V2000
    5.6851   -3.2714   58.3329 C   0  0  0  0  0  0  0  0  0  0  0  0
    7.0378   -3.4316   58.5920 C   0  0  0  0  0  0  0  0  0  0  0  0
    4.7512   -3.4562   59.3561 C   0  0  0  0  0  0  0  0  0  0  0  0
    7.4532   -3.7826   59.8721 C   0  0  0  0  0  0  0  0  0  0  0  0
    5.9359   -5.7978   64.4920 C   0  0  0  0  0  0  0  0  0  0  0  0
    4.8642   -6.3184   65.2097 C   0  0  0  0  0  0  0  0  0  0  0  0
    3.3498   -5.3168   63.6235 C   0  0  0  0  0  0  0  0  0  0  0  0
    5.1392   -3.8005   60.6695 C   0  0  0  0  0  0  0  0  0  0  0  0
    4.4138   -4.7633   62.8782 C   0  0  0  0  0  0  0  0  0  0  0  0
    6.5175   -3.9747   60.9041 C   0  0  0  0  0  0  0  0  0  0  0  0
    5.7203   -5.0331   63.3317 C   0  0  0  0  0  0  0  0  0  0  0  0
    3.5699   -6.0804   64.7732 C   0  0  0  0  0  0  0  0  0  0  0  0
    4.1909   -3.9997   61.7046 N   0  0  0  0  0  0  0  0  0  0  0  0
    7.1674   -4.3992   62.5078 S   0  0  0  0  0  0  0  0  0  0  0  0
    2.2347   -6.7176   65.6536 Cl  0  0  0  0  0  0  0  0  0  0  0  0
    2.8512   -3.4291   61.5136 C   0  0  0  0  0  0  0  0  0  0  0  0
    2.5597   -2.3574   62.5607 C   0  0  0  0  0  0  0  0  0  0  0  0
    3.3389   -2.5824   63.8505 C   0  0  0  0  0  0  0  0  0  0  0  0
    4.8174   -0.6979   64.5318 C   0  0  0  0  0  0  0  0  0  0  0  0
    2.3881   -0.3012   64.1554 C   0  0  0  0  0  0  0  0  0  0  0  0
    3.4344   -1.2990   64.5884 N   0  0  0  0  0  0  0  0  0  0  0  0
    3.2478   -1.4934   65.5872 H   0  0  0  0  0  0  0  0  0  0  0  0
  1  2  1  0  0  0
  1  3  2  0  0  0
  2  4  2  0  0  0
  3  8  1  0  0  0
  4 10  1  0  0  0
  5  6  2  0  0  0
  5 11  1  0  0  0
  6 12  1  0  0  0
  7  9  1  0  0  0
  7 12  2  0  0  0
  8 10  2  0  0  0
  8 13  1  0  0  0
  9 11  2  0  0  0
  9 13  1  0  0  0
 10 14  1  0  0  0
 11 14  1  0  0  0
 12 15  1  0  0  0
 19 21  1  0  0  0
 20 21  1  0  0  0
 17 16  1  0  0  0
 17 18  1  0  0  0
 16 13  1  0  0  0
 18 21  1  0  0  0
 21 22  1  0  0  0
M  CHG 1  21   1
M  END
> <minimizedAffinity>
9.00430

> <CNNscore>
0.4278540909

> <CNNaffinity>
5.2114543915

> <CNN_VS>
2.2297420502

> <CNNaffinity_variance>
0.5197468996

$$$$



 22 24  0  0  0  0  0  0  0  0999 V2000
    9.5207   -0.8772   58.1065 C   0  0  0  0  0  0  0  0  0  0  0  0
    9.1228   -1.4516   56.9089 C   0  0  0  0  0  0  0  0  0  0  0  0
   10.7746   -0.2682   58.2066 C   0  0  0  0  0  0  0  0  0  0  0  0
    9.9824   -1.4217   55.8158 C   0  0  0  0  0  0  0  0  0  0  0  0
   14.9682   -0.7340   54.2746 C   0  0  0  0  0  0  0  0  0  0  0  0
   16.2648   -0.4667   54.7012 C   0  0  0  0  0  0  0  0  0  0  0  0
   15.3795    0.3676   56.7828 C   0  0  0  0  0  0  0  0  0  0  0  0
   11.6667   -0.2091   57.1135 C   0  0  0  0  0  0  0  0  0  0  0  0
   14.0500    0.1202   56.3765 C   0  0  0  0  0  0  0  0  0  0  0  0
   11.2473   -0.8148   55.9125 C   0  0  0  0  0  0  0  0  0  0  0  0
   13.8668   -0.4530   55.1025 C   0  0  0  0  0  0  0  0  0  0  0  0
   16.4709    0.0817   55.9579 C   0  0  0  0  0  0  0  0  0  0  0  0
   12.9436    0.3981   57.2186 N   0  0  0  0  0  0  0  0  0  0  0  0
   12.2525   -0.8162   54.4416 S   0  0  0  0  0  0  0  0  0  0  0  0
   18.0707    0.4190   56.4970 Cl  0  0  0  0  0  0  0  0  0  0  0  0
   13.1576    1.3356   58.3286 C   0  0  0  0  0  0  0  0  0  0  0  0
   13.8858    0.6557   59.4850 C   0  0  0  0  0  0  0  0  0  0  0  0
   12.9304   -0.0757   60.4197 C   0  0  0  0  0  0  0  0  0  0  0  0
   12.1288    0.2505   62.7548 C   0  0  0  0  0  0  0  0  0  0  0  0
   14.3763   -0.7367   62.3363 C   0  0  0  0  0  0  0  0  0  0  0  0
   13.3159    0.2072   61.8240 N   0  0  0  0  0  0  0  0  0  0  0  0
   13.7363    1.1520   61.8528 H   0  0  0  0  0  0  0  0  0  0  0  0
  1  2  1  0  0  0
  1  3  2  0  0  0
  2  4  2  0  0  0
  3  8  1  0  0  0
  4 10  1  0  0  0
  5  6  2  0  0  0
  5 11  1  0  0  0
  6 12  1  0  0  0
  7  9  1  0  0  0
  7 12  2  0  0  0
  8 10  2  0  0  0
  8 13  1  0  0  0
  9 11  2  0  0  0
  9 13  1  0  0  0
 10 14  1  0  0  0
 11 14  1  0  0  0
 12 15  1  0  0  0
 19 21  1  0  0  0
 20 21  1  0  0  0
 17 16  1  0  0  0
 17 18  1  0  0  0
 16 13  1  0  0  0
 18 21  1  0  0  0
 21 22  1  0  0  0
M  CHG 1  21   1
M  END
> <minimizedAffinity>
-6.82361

> <CNNscore>
0.3848103583

> <CNNaffinity>
6.1780123711

> <CNN_VS>
2.3773632050

> <CNNaffinity_variance>
0.2180361450

$$$$



 22 24  0  0  0  0  0  0  0  0999 V2000
   17.5271    1.3176   57.0374 C   0  0  0  0  0  0  0  0  0  0  0  0
   17.6397    0.6495   55.8276 C   0  0  0  0  0  0  0  0  0  0  0  0
   16.3649    1.1864   57.8023 C   0  0  0  0  0  0  0  0  0  0  0  0
   16.5871   -0.1431   55.3823 C   0  0  0  0  0  0  0  0  0  0  0  0
   11.4596   -1.1995   55.9290 C   0  0  0  0  0  0  0  0  0  0  0  0
   10.2947   -0.8636   56.6107 C   0  0  0  0  0  0  0  0  0  0  0  0
   11.6290    0.2101   58.3076 C   0  0  0  0  0  0  0  0  0  0  0  0
   15.2826    0.3804   57.3861 C   0  0  0  0  0  0  0  0  0  0  0  0
   12.8316   -0.1251   57.6478 C   0  0  0  0  0  0  0  0  0  0  0  0
   15.4133   -0.2746   56.1455 C   0  0  0  0  0  0  0  0  0  0  0  0
   12.7193   -0.8301   56.4330 C   0  0  0  0  0  0  0  0  0  0  0  0
   10.3793   -0.1553   57.7997 C   0  0  0  0  0  0  0  0  0  0  0  0
   14.0987    0.2569   58.1564 N   0  0  0  0  0  0  0  0  0  0  0  0
   14.1420   -1.3345   55.4863 S   0  0  0  0  0  0  0  0  0  0  0  0
    8.9450    0.2651   58.6541 Cl  0  0  0  0  0  0  0  0  0  0  0  0
   14.1753    0.6201   59.5774 C   0  0  0  0  0  0  0  0  0  0  0  0
   14.3179   -0.6228   60.4519 C   0  0  0  0  0  0  0  0  0  0  0  0
   13.8052   -0.3949   61.8683 C   0  0  0  0  0  0  0  0  0  0  0  0
   11.4523   -1.0141   61.3368 C   0  0  0  0  0  0  0  0  0  0  0  0
   11.9264    0.6763   63.1027 C   0  0  0  0  0  0  0  0  0  0  0  0
   12.3965    0.0661   61.8048 N   0  0  0  0  0  0  0  0  0  0  0  0
   12.3416    0.8197   61.0982 H   0  0  0  0  0  0  0  0  0  0  0  0
  1  2  1  0  0  0
  1  3  2  0  0  0
  2  4  2  0  0  0
  3  8  1  0  0  0
  4 10  1  0  0  0
  5  6  2  0  0  0
  5 11  1  0  0  0
  6 12  1  0  0  0
  7  9  1  0  0  0
  7 12  2  0  0  0
  8 10  2  0  0  0
  8 13  1  0  0  0
  9 11  2  0  0  0
  9 13  1  0  0  0
 10 14  1  0  0  0
 11 14  1  0  0  0
 12 15  1  0  0  0
 19 21  1  0  0  0
 20 21  1  0  0  0
 17 16  1  0  0  0
 17 18  1  0  0  0
 16 13  1  0  0  0
 18 21  1  0  0  0
 21 22  1  0  0  0
M  CHG 1  21   1
M  END
> <minimizedAffinity>
-7.25632

> <CNNscore>
0.3811834157

> <CNNaffinity>
6.1601166725

> <CNN_VS>
2.3481342793

> <CNNaffinity_variance>
0.2838861942

$$$$



 22 24  0  0  0  0  0  0  0  0999 V2000
   13.6158   -0.5703   62.3212 C   0  0  0  0  0  0  0  0  0  0  0  0
   12.2825   -0.2509   62.1138 C   0  0  0  0  0  0  0  0  0  0  0  0
   14.5381   -0.4284   61.2808 C   0  0  0  0  0  0  0  0  0  0  0  0
   11.8732    0.2034   60.8646 C   0  0  0  0  0  0  0  0  0  0  0  0
   13.1385    0.5056   55.7643 C   0  0  0  0  0  0  0  0  0  0  0  0
   14.0950    0.1818   54.8077 C   0  0  0  0  0  0  0  0  0  0  0  0
   15.7069   -0.1486   56.5699 C   0  0  0  0  0  0  0  0  0  0  0  0
   14.1591    0.0417   60.0043 C   0  0  0  0  0  0  0  0  0  0  0  0
   14.7640    0.1868   57.5662 C   0  0  0  0  0  0  0  0  0  0  0  0
   12.7961    0.3432   59.8128 C   0  0  0  0  0  0  0  0  0  0  0  0
   13.4610    0.5025   57.1330 C   0  0  0  0  0  0  0  0  0  0  0  0
   15.3797   -0.1488   55.2111 C   0  0  0  0  0  0  0  0  0  0  0  0
   15.0925    0.1743   58.9454 N   0  0  0  0  0  0  0  0  0  0  0  0
   12.1616    0.9558   58.2647 S   0  0  0  0  0  0  0  0  0  0  0  0
   16.5733   -0.5498   54.0371 Cl  0  0  0  0  0  0  0  0  0  0  0  0
   16.5160    0.2329   59.3019 C   0  0  0  0  0  0  0  0  0  0  0  0
   17.2225   -1.0723   58.9455 C   0  0  0  0  0  0  0  0  0  0  0  0
   18.7339   -0.9753   59.1105 C   0  0  0  0  0  0  0  0  0  0  0  0
   19.3950   -0.2281   56.8287 C   0  0  0  0  0  0  0  0  0  0  0  0
   20.7713   -1.9181   58.0330 C   0  0  0  0  0  0  0  0  0  0  0  0
   19.3856   -1.3546   57.8329 N   0  0  0  0  0  0  0  0  0  0  0  0
   18.8273   -2.1137   57.4058 H   0  0  0  0  0  0  0  0  0  0  0  0
  1  2  1  0  0  0
  1  3  2  0  0  0
  2  4  2  0  0  0
  3  8  1  0  0  0
  4 10  1  0  0  0
  5  6  2  0  0  0
  5 11  1  0  0  0
  6 12  1  0  0  0
  7  9  1  0  0  0
  7 12  2  0  0  0
  8 10  2  0  0  0
  8 13  1  0  0  0
  9 11  2  0  0  0
  9 13  1  0  0  0
 10 14  1  0  0  0
 11 14  1  0  0  0
 12 15  1  0  0  0
 19 21  1  0  0  0
 20 21  1  0  0  0
 17 16  1  0  0  0
 17 18  1  0  0  0
 16 13  1  0  0  0
 18 21  1  0  0  0
 21 22  1  0  0  0
M  CHG 1  21   1
M  END
> <minimizedAffinity>
-7.79218

> <CNNscore>
0.3516019583

> <CNNaffinity>
6.3765373230

> <CNN_VS>
2.2420029640

> <CNNaffinity_variance>
0.0831669122

$$$$



 22 24  0  0  0  0  0  0  0  0999 V2000
   12.5137   -0.9839   53.8450 C   0  0  0  0  0  0  0  0  0  0  0  0
   13.7738   -0.7590   53.3117 C   0  0  0  0  0  0  0  0  0  0  0  0
   12.2756   -0.7420   55.2007 C   0  0  0  0  0  0  0  0  0  0  0  0
   14.7947   -0.2990   54.1368 C   0  0  0  0  0  0  0  0  0  0  0  0
   16.3844    0.2510   59.1244 C   0  0  0  0  0  0  0  0  0  0  0  0
   16.0510    0.0288   60.4563 C   0  0  0  0  0  0  0  0  0  0  0  0
   13.7438   -0.2332   59.8074 C   0  0  0  0  0  0  0  0  0  0  0  0
   13.2856   -0.2632   56.0636 C   0  0  0  0  0  0  0  0  0  0  0  0
   14.0455    0.0004   58.4479 C   0  0  0  0  0  0  0  0  0  0  0  0
   14.5619   -0.0589   55.5027 C   0  0  0  0  0  0  0  0  0  0  0  0
   15.3971    0.2307   58.1232 C   0  0  0  0  0  0  0  0  0  0  0  0
   14.7298   -0.2168   60.7979 C   0  0  0  0  0  0  0  0  0  0  0  0
   13.0472   -0.0292   57.4415 N   0  0  0  0  0  0  0  0  0  0  0  0
   15.9379    0.5511   56.4560 S   0  0  0  0  0  0  0  0  0  0  0  0
   14.3038   -0.4917   62.4430 Cl  0  0  0  0  0  0  0  0  0  0  0  0
   11.6509    0.1250   57.8697 C   0  0  0  0  0  0  0  0  0  0  0  0
   11.2427    1.5957   57.8824 C   0  0  0  0  0  0  0  0  0  0  0  0
   10.2252    1.9039   58.9736 C   0  0  0  0  0  0  0  0  0  0  0  0
   10.7156    3.5099   60.8126 C   0  0  0  0  0  0  0  0  0  0  0  0
   10.6328    1.0660   61.2828 C   0  0  0  0  0  0  0  0  0  0  0  0
   10.9408    2.1263   60.2539 N   0  0  0  0  0  0  0  0  0  0  0  0
   11.9556    2.0557   60.0657 H   0  0  0  0  0  0  0  0  0  0  0  0
  1  2  1  0  0  0
  1  3  2  0  0  0
  2  4  2  0  0  0
  3  8  1  0  0  0
  4 10  1  0  0  0
  5  6  2  0  0  0
  5 11  1  0  0  0
  6 12  1  0  0  0
  7  9  1  0  0  0
  7 12  2  0  0  0
  8 10  2  0  0  0
  8 13  1  0  0  0
  9 11  2  0  0  0
  9 13  1  0  0  0
 10 14  1  0  0  0
 11 14  1  0  0  0
 12 15  1  0  0  0
 19 21  1  0  0  0
 20 21  1  0  0  0
 17 16  1  0  0  0
 17 18  1  0  0  0
 16 13  1  0  0  0
 18 21  1  0  0  0
 21 22  1  0  0  0
M  CHG 1  21   1
M  END
> <minimizedAffinity>
-7.37273

> <CNNscore>
0.3475944102

> <CNNaffinity>
6.0122752190

> <CNN_VS>
2.0898332596

> <CNNaffinity_variance>
0.4050638080

$$$$



 30 33  0  0  0  0  0  0  0  0999 V2000
   14.3379   -1.2132   55.4093 C   0  0  0  0  0  0  0  0  0  0  0  0
   20.8876   -2.0038   58.0042 C   0  0  0  0  0  0  0  0  0  0  0  0
   15.0027   -0.6830   54.3109 C   0  0  0  0  0  0  0  0  0  0  0  0
   21.1993   -1.5183   56.7410 C   0  0  0  0  0  0  0  0  0  0  0  0
   14.8488   -1.0146   56.6925 C   0  0  0  0  0  0  0  0  0  0  0  0
   19.7205   -1.5813   58.6410 C   0  0  0  0  0  0  0  0  0  0  0  0
   16.1815    0.0355   54.4972 C   0  0  0  0  0  0  0  0  0  0  0  0
   20.3527   -0.5987   56.1254 C   0  0  0  0  0  0  0  0  0  0  0  0
   16.0343   -0.2856   56.9056 C   0  0  0  0  0  0  0  0  0  0  0  0
   18.8270   -0.6905   58.0203 C   0  0  0  0  0  0  0  0  0  0  0  0
   16.7015    0.2291   55.7861 C   0  0  0  0  0  0  0  0  0  0  0  0
   19.1731   -0.1742   56.7593 C   0  0  0  0  0  0  0  0  0  0  0  0
   16.4945   -0.0724   58.2974 C   0  0  0  0  0  0  0  0  0  0  0  0
   17.7282   -0.3185   58.7487 N   0  0  0  0  0  0  0  0  0  0  0  0
   18.2318    1.1147   55.9571 S   0  0  0  0  0  0  0  0  0  0  0  0
   17.8837   -0.1153   59.7337 H   0  0  0  0  0  0  0  0  0  0  0  0
   15.3909   -0.2781   60.4827 C   0  0  0  0  0  0  0  0  0  0  0  0
   14.7195    1.5123   58.9082 C   0  0  0  0  0  0  0  0  0  0  0  0
   13.9304   -0.6163   60.7428 C   0  0  0  0  0  0  0  0  0  0  0  0
   13.2515    1.1947   59.1510 C   0  0  0  0  0  0  0  0  0  0  0  0
   15.5570    0.3521   59.1800 N   0  0  0  0  0  0  0  0  0  0  0  0
   13.0922    0.6294   60.5467 N   0  0  0  0  0  0  0  0  0  0  0  0
   13.4372    1.3394   61.2075 H   0  0  0  0  0  0  0  0  0  0  0  0
   11.6488    0.3902   60.8901 C   0  0  0  0  0  0  0  0  0  0  0  0
   11.5596   -0.2408   62.2656 C   0  0  0  0  0  0  0  0  0  0  0  0
   12.1357    0.6325   63.2280 O   0  0  0  0  0  0  0  0  0  0  0  0
   11.1391    1.3387   63.9542 C   0  0  0  0  0  0  0  0  0  0  0  0
   10.1797    0.3420   64.5752 C   0  0  0  0  0  0  0  0  0  0  0  0
    9.3450    1.0194   65.5068 O   0  0  0  0  0  0  0  0  0  0  0  0
    8.7475    0.3531   65.8820 H   0  0  0  0  0  0  0  0  0  0  0  0
  1  3  1  0  0  0
  1  5  2  0  0  0
  2  4  1  0  0  0
  2  6  2  0  0  0
  3  7  2  0  0  0
  4  8  2  0  0  0
  5  9  1  0  0  0
  6 10  1  0  0  0
  7 11  1  0  0  0
  8 12  1  0  0  0
  9 11  2  0  0  0
  9 13  1  0  0  0
 10 12  2  0  0  0
 10 14  1  0  0  0
 11 15  1  0  0  0
 12 15  1  0  0  0
 13 21  1  0  0  0
 13 14  2  0  0  0
 17 19  1  0  0  0
 17 21  1  0  0  0
 18 20  1  0  0  0
 18 21  1  0  0  0
 19 22  1  0  0  0
 20 22  1  0  0  0
 24 25  1  0  0  0
 24 22  1  0  0  0
 25 26  1  0  0  0
 28 27  1  0  0  0
 28 29  1  0  0  0
 27 26  1  0  0  0
 14 16  1  0  0  0
 22 23  1  0  0  0
 29 30  1  0  0  0
M  CHG 1  14   1
M  CHG 1  22   1
M  END
> <minimizedAffinity>
-10.34667

> <CNNscore>
0.9187721610

> <CNNaffinity>
7.2482786179

> <CNN_VS>
6.6595168114

> <CNNaffinity_variance>
0.1175986156

$$$$



 30 33  0  0  0  0  0  0  0  0999 V2000
   14.1367   -1.4600   55.3477 C   0  0  0  0  0  0  0  0  0  0  0  0
   20.6218   -1.9001   58.1773 C   0  0  0  0  0  0  0  0  0  0  0  0
   14.8234   -1.0087   54.2277 C   0  0  0  0  0  0  0  0  0  0  0  0
   20.9611   -1.5141   56.8872 C   0  0  0  0  0  0  0  0  0  0  0  0
   14.6067   -1.1458   56.6234 C   0  0  0  0  0  0  0  0  0  0  0  0
   19.4294   -1.4505   58.7447 C   0  0  0  0  0  0  0  0  0  0  0  0
   15.9831   -0.2532   54.3858 C   0  0  0  0  0  0  0  0  0  0  0  0
   20.1162   -0.6658   56.1745 C   0  0  0  0  0  0  0  0  0  0  0  0
   15.7721   -0.3777   56.8077 C   0  0  0  0  0  0  0  0  0  0  0  0
   18.5383   -0.6323   58.0280 C   0  0  0  0  0  0  0  0  0  0  0  0
   16.4620    0.0565   55.6680 C   0  0  0  0  0  0  0  0  0  0  0  0
   18.9113   -0.2147   56.7385 C   0  0  0  0  0  0  0  0  0  0  0  0
   16.1879   -0.0412   58.1890 C   0  0  0  0  0  0  0  0  0  0  0  0
   17.4123   -0.2240   58.6928 N   0  0  0  0  0  0  0  0  0  0  0  0
   17.9705    0.9842   55.8067 S   0  0  0  0  0  0  0  0  0  0  0  0
   17.5356    0.0629   59.6614 H   0  0  0  0  0  0  0  0  0  0  0  0
   14.7858   -0.2968   60.1902 C   0  0  0  0  0  0  0  0  0  0  0  0
   14.6113    1.7426   58.7953 C   0  0  0  0  0  0  0  0  0  0  0  0
   13.2693   -0.4114   60.2372 C   0  0  0  0  0  0  0  0  0  0  0  0
   13.0929    1.6514   58.8272 C   0  0  0  0  0  0  0  0  0  0  0  0
   15.2178    0.4355   59.0074 N   0  0  0  0  0  0  0  0  0  0  0  0
   12.6652    0.9713   60.1107 N   0  0  0  0  0  0  0  0  0  0  0  0
   13.0241    1.5366   60.8927 H   0  0  0  0  0  0  0  0  0  0  0  0
   11.1696    0.9419   60.2545 C   0  0  0  0  0  0  0  0  0  0  0  0
   10.5416    1.7126   59.1101 C   0  0  0  0  0  0  0  0  0  0  0  0
    9.1839    1.3190   58.9597 O   0  0  0  0  0  0  0  0  0  0  0  0
    8.9887   -0.0364   59.3393 C   0  0  0  0  0  0  0  0  0  0  0  0
    8.8971   -0.8918   58.0905 C   0  0  0  0  0  0  0  0  0  0  0  0
    7.5649   -0.8468   57.5937 O   0  0  0  0  0  0  0  0  0  0  0  0
    7.5448   -1.4028   56.7985 H   0  0  0  0  0  0  0  0  0  0  0  0
  1  3  1  0  0  0
  1  5  2  0  0  0
  2  4  1  0  0  0
  2  6  2  0  0  0
  3  7  2  0  0  0
  4  8  2  0  0  0
  5  9  1  0  0  0
  6 10  1  0  0  0
  7 11  1  0  0  0
  8 12  1  0  0  0
  9 11  2  0  0  0
  9 13  1  0  0  0
 10 12  2  0  0  0
 10 14  1  0  0  0
 11 15  1  0  0  0
 12 15  1  0  0  0
 13 21  1  0  0  0
 13 14  2  0  0  0
 17 19  1  0  0  0
 17 21  1  0  0  0
 18 20  1  0  0  0
 18 21  1  0  0  0
 19 22  1  0  0  0
 20 22  1  0  0  0
 24 25  1  0  0  0
 24 22  1  0  0  0
 25 26  1  0  0  0
 28 27  1  0  0  0
 28 29  1  0  0  0
 27 26  1  0  0  0
 14 16  1  0  0  0
 22 23  1  0  0  0
 29 30  1  0  0  0
M  CHG 1  14   1
M  CHG 1  22   1
M  END
> <minimizedAffinity>
-10.02781

> <CNNscore>
0.8789088726

> <CNNaffinity>
7.0764417648

> <CNN_VS>
6.2195472717

> <CNNaffinity_variance>
0.0874950737

$$$$



 30 33  0  0  0  0  0  0  0  0999 V2000
   14.1499   -1.8618   54.7293 C   0  0  0  0  0  0  0  0  0  0  0  0
   20.5211   -1.3960   57.8033 C   0  0  0  0  0  0  0  0  0  0  0  0
   14.7031   -0.9864   53.8034 C   0  0  0  0  0  0  0  0  0  0  0  0
   20.7557   -0.6241   56.6729 C   0  0  0  0  0  0  0  0  0  0  0  0
   14.5190   -1.7760   56.0723 C   0  0  0  0  0  0  0  0  0  0  0  0
   19.2511   -1.4127   58.3802 C   0  0  0  0  0  0  0  0  0  0  0  0
   15.6308   -0.0346   54.2204 C   0  0  0  0  0  0  0  0  0  0  0  0
   19.7251    0.1424   56.1330 C   0  0  0  0  0  0  0  0  0  0  0  0
   15.4489   -0.8175   56.5181 C   0  0  0  0  0  0  0  0  0  0  0  0
   18.1835   -0.6847   57.8259 C   0  0  0  0  0  0  0  0  0  0  0  0
   16.0096    0.0476   55.5691 C   0  0  0  0  0  0  0  0  0  0  0  0
   18.4426    0.1249   56.7061 C   0  0  0  0  0  0  0  0  0  0  0  0
   15.7595   -0.7509   57.9649 C   0  0  0  0  0  0  0  0  0  0  0  0
   16.9879   -0.7485   58.4914 N   0  0  0  0  0  0  0  0  0  0  0  0
   17.2306    1.2514   56.0333 S   0  0  0  0  0  0  0  0  0  0  0  0
   17.0299   -0.6956   59.5069 H   0  0  0  0  0  0  0  0  0  0  0  0
   13.3287   -0.6696   58.3124 C   0  0  0  0  0  0  0  0  0  0  0  0
   14.8589   -0.9154   60.2446 C   0  0  0  0  0  0  0  0  0  0  0  0
   12.5448    0.4045   59.0520 C   0  0  0  0  0  0  0  0  0  0  0  0
   14.0920    0.1554   61.0062 C   0  0  0  0  0  0  0  0  0  0  0  0
   14.6965   -0.7513   58.8065 N   0  0  0  0  0  0  0  0  0  0  0  0
   12.6506    0.1558   60.5419 N   0  0  0  0  0  0  0  0  0  0  0  0
   12.2681   -0.7822   60.7251 H   0  0  0  0  0  0  0  0  0  0  0  0
   11.8114    1.1220   61.3296 C   0  0  0  0  0  0  0  0  0  0  0  0
   10.3485    0.8975   61.0011 C   0  0  0  0  0  0  0  0  0  0  0  0
    9.7907    2.0932   60.4721 O   0  0  0  0  0  0  0  0  0  0  0  0
   10.0924    3.2157   61.2896 C   0  0  0  0  0  0  0  0  0  0  0  0
   11.1765    4.0382   60.6203 C   0  0  0  0  0  0  0  0  0  0  0  0
   11.4948    5.1493   61.4495 O   0  0  0  0  0  0  0  0  0  0  0  0
   12.1884    5.6499   60.9911 H   0  0  0  0  0  0  0  0  0  0  0  0
  1  3  1  0  0  0
  1  5  2  0  0  0
  2  4  1  0  0  0
  2  6  2  0  0  0
  3  7  2  0  0  0
  4  8  2  0  0  0
  5  9  1  0  0  0
  6 10  1  0  0  0
  7 11  1  0  0  0
  8 12  1  0  0  0
  9 11  2  0  0  0
  9 13  1  0  0  0
 10 12  2  0  0  0
 10 14  1  0  0  0
 11 15  1  0  0  0
 12 15  1  0  0  0
 13 21  1  0  0  0
 13 14  2  0  0  0
 17 19  1  0  0  0
 17 21  1  0  0  0
 18 20  1  0  0  0
 18 21  1  0  0  0
 19 22  1  0  0  0
 20 22  1  0  0  0
 24 25  1  0  0  0
 24 22  1  0  0  0
 25 26  1  0  0  0
 28 27  1  0  0  0
 28 29  1  0  0  0
 27 26  1  0  0  0
 14 16  1  0  0  0
 22 23  1  0  0  0
 29 30  1  0  0  0
M  CHG 1  14   1
M  CHG 1  22   1
M  END
> <minimizedAffinity>
-7.39432

> <CNNscore>
0.6511973739

> <CNNaffinity>
6.9320220947

> <CNN_VS>
4.5141143799

> <CNNaffinity_variance>
0.1488188803

$$$$



 30 33  0  0  0  0  0  0  0  0999 V2000
   13.2425   -1.9887   54.7143 C   0  0  0  0  0  0  0  0  0  0  0  0
   18.9157   -1.3125   58.9113 C   0  0  0  0  0  0  0  0  0  0  0  0
   14.1049   -1.5193   53.7316 C   0  0  0  0  0  0  0  0  0  0  0  0
   19.4894   -0.9684   57.6944 C   0  0  0  0  0  0  0  0  0  0  0  0
   13.3668   -1.5272   56.0252 C   0  0  0  0  0  0  0  0  0  0  0  0
   17.5791   -1.0008   59.1607 C   0  0  0  0  0  0  0  0  0  0  0  0
   15.0952   -0.5976   54.0639 C   0  0  0  0  0  0  0  0  0  0  0  0
   18.7306   -0.2981   56.7372 C   0  0  0  0  0  0  0  0  0  0  0  0
   14.3551   -0.5904   56.3828 C   0  0  0  0  0  0  0  0  0  0  0  0
   16.7802   -0.3671   58.1925 C   0  0  0  0  0  0  0  0  0  0  0  0
   15.2272   -0.1387   55.3834 C   0  0  0  0  0  0  0  0  0  0  0  0
   17.3824    0.0131   56.9804 C   0  0  0  0  0  0  0  0  0  0  0  0
   14.4003   -0.1075   57.7824 C   0  0  0  0  0  0  0  0  0  0  0  0
   15.4907   -0.0803   58.5549 N   0  0  0  0  0  0  0  0  0  0  0  0
   16.5374    1.0015   55.7558 S   0  0  0  0  0  0  0  0  0  0  0  0
   15.3535    0.2847   59.4949 H   0  0  0  0  0  0  0  0  0  0  0  0
   12.4639    1.4046   57.7857 C   0  0  0  0  0  0  0  0  0  0  0  0
   12.5964   -0.4583   59.4128 C   0  0  0  0  0  0  0  0  0  0  0  0
   12.0515    2.3619   58.8941 C   0  0  0  0  0  0  0  0  0  0  0  0
   12.1849    0.4778   60.5394 C   0  0  0  0  0  0  0  0  0  0  0  0
   13.2178    0.2792   58.3213 N   0  0  0  0  0  0  0  0  0  0  0  0
   11.3234    1.5861   59.9715 N   0  0  0  0  0  0  0  0  0  0  0  0
   10.5040    1.1443   59.5320 H   0  0  0  0  0  0  0  0  0  0  0  0
   10.7957    2.4902   61.0498 C   0  0  0  0  0  0  0  0  0  0  0  0
    9.3948    2.0521   61.4289 C   0  0  0  0  0  0  0  0  0  0  0  0
    9.4542    0.8080   62.1140 O   0  0  0  0  0  0  0  0  0  0  0  0
    9.9048    0.9705   63.4520 C   0  0  0  0  0  0  0  0  0  0  0  0
    8.8032    0.5393   64.4009 C   0  0  0  0  0  0  0  0  0  0  0  0
    8.9166    1.2791   65.6105 O   0  0  0  0  0  0  0  0  0  0  0  0
    8.1990    0.9777   66.1902 H   0  0  0  0  0  0  0  0  0  0  0  0
  1  3  1  0  0  0
  1  5  2  0  0  0
  2  4  1  0  0  0
  2  6  2  0  0  0
  3  7  2  0  0  0
  4  8  2  0  0  0
  5  9  1  0  0  0
  6 10  1  0  0  0
  7 11  1  0  0  0
  8 12  1  0  0  0
  9 11  2  0  0  0
  9 13  1  0  0  0
 10 12  2  0  0  0
 10 14  1  0  0  0
 11 15  1  0  0  0
 12 15  1  0  0  0
 13 21  1  0  0  0
 13 14  2  0  0  0
 17 19  1  0  0  0
 17 21  1  0  0  0
 18 20  1  0  0  0
 18 21  1  0  0  0
 19 22  1  0  0  0
 20 22  1  0  0  0
 24 25  1  0  0  0
 24 22  1  0  0  0
 25 26  1  0  0  0
 28 27  1  0  0  0
 28 29  1  0  0  0
 27 26  1  0  0  0
 14 16  1  0  0  0
 22 23  1  0  0  0
 29 30  1  0  0  0
M  CHG 1  14   1
M  CHG 1  22   1
M  END
> <minimizedAffinity>
-8.67830

> <CNNscore>
0.5933737755

> <CNNaffinity>
6.6906495094

> <CNN_VS>
3.9700560570

> <CNNaffinity_variance>
0.0929547176

$$$$



 30 33  0  0  0  0  0  0  0  0999 V2000
    9.0643   -2.4447   59.5323 C   0  0  0  0  0  0  0  0  0  0  0  0
    6.4471    1.1712   65.0398 C   0  0  0  0  0  0  0  0  0  0  0  0
    8.6127   -3.5508   60.2409 C   0  0  0  0  0  0  0  0  0  0  0  0
    6.0610   -0.1120   65.4045 C   0  0  0  0  0  0  0  0  0  0  0  0
    9.5540   -1.3330   60.2188 C   0  0  0  0  0  0  0  0  0  0  0  0
    7.6315    1.3630   64.3282 C   0  0  0  0  0  0  0  0  0  0  0  0
    8.6425   -3.5388   61.6336 C   0  0  0  0  0  0  0  0  0  0  0  0
    6.8684   -1.1978   65.0723 C   0  0  0  0  0  0  0  0  0  0  0  0
    9.6006   -1.3011   61.6255 C   0  0  0  0  0  0  0  0  0  0  0  0
    8.4387    0.2788   63.9407 C   0  0  0  0  0  0  0  0  0  0  0  0
    9.1266   -2.4183   62.3260 C   0  0  0  0  0  0  0  0  0  0  0  0
    8.0592   -1.0113   64.3506 C   0  0  0  0  0  0  0  0  0  0  0  0
   10.1766   -0.1083   62.2886 C   0  0  0  0  0  0  0  0  0  0  0  0
    9.5949    0.5843   63.2726 N   0  0  0  0  0  0  0  0  0  0  0  0
    9.0976   -2.4432   64.1019 S   0  0  0  0  0  0  0  0  0  0  0  0
   10.1253    1.3792   63.6227 H   0  0  0  0  0  0  0  0  0  0  0  0
   11.4364    1.3925   60.8064 C   0  0  0  0  0  0  0  0  0  0  0  0
   12.6324   -0.1713   62.3097 C   0  0  0  0  0  0  0  0  0  0  0  0
   12.3380    0.9910   59.6484 C   0  0  0  0  0  0  0  0  0  0  0  0
   13.5479   -0.5899   61.1688 C   0  0  0  0  0  0  0  0  0  0  0  0
   11.3632    0.3327   61.8030 N   0  0  0  0  0  0  0  0  0  0  0  0
   13.6832    0.5621   60.1954 N   0  0  0  0  0  0  0  0  0  0  0  0
   14.0725    1.3604   60.7157 H   0  0  0  0  0  0  0  0  0  0  0  0
   14.6590    0.2509   59.0956 C   0  0  0  0  0  0  0  0  0  0  0  0
   15.5989    1.4263   58.9132 C   0  0  0  0  0  0  0  0  0  0  0  0
   16.7237    1.0212   58.1441 O   0  0  0  0  0  0  0  0  0  0  0  0
   16.3933    0.8850   56.7687 C   0  0  0  0  0  0  0  0  0  0  0  0
   17.6724    0.8175   55.9568 C   0  0  0  0  0  0  0  0  0  0  0  0
   18.5327    1.8773   56.3570 O   0  0  0  0  0  0  0  0  0  0  0  0
   19.3368    1.8024   55.8188 H   0  0  0  0  0  0  0  0  0  0  0  0
  1  3  1  0  0  0
  1  5  2  0  0  0
  2  4  1  0  0  0
  2  6  2  0  0  0
  3  7  2  0  0  0
  4  8  2  0  0  0
  5  9  1  0  0  0
  6 10  1  0  0  0
  7 11  1  0  0  0
  8 12  1  0  0  0
  9 11  2  0  0  0
  9 13  1  0  0  0
 10 12  2  0  0  0
 10 14  1  0  0  0
 11 15  1  0  0  0
 12 15  1  0  0  0
 13 21  1  0  0  0
 13 14  2  0  0  0
 17 19  1  0  0  0
 17 21  1  0  0  0
 18 20  1  0  0  0
 18 21  1  0  0  0
 19 22  1  0  0  0
 20 22  1  0  0  0
 24 25  1  0  0  0
 24 22  1  0  0  0
 25 26  1  0  0  0
 28 27  1  0  0  0
 28 29  1  0  0  0
 27 26  1  0  0  0
 14 16  1  0  0  0
 22 23  1  0  0  0
 29 30  1  0  0  0
M  CHG 1  14   1
M  CHG 1  22   1
M  END
> <minimizedAffinity>
-8.64895

> <CNNscore>
0.4404420555

> <CNNaffinity>
6.4204254150

> <CNN_VS>
2.8278253078

> <CNNaffinity_variance>
0.0446597524

$$$$



 30 33  0  0  0  0  0  0  0  0999 V2000
   10.7348    3.3286   60.4820 C   0  0  0  0  0  0  0  0  0  0  0  0
    9.3824   -0.7042   66.1534 C   0  0  0  0  0  0  0  0  0  0  0  0
    9.3721    3.1905   60.2503 C   0  0  0  0  0  0  0  0  0  0  0  0
    8.0902   -0.5509   65.6686 C   0  0  0  0  0  0  0  0  0  0  0  0
   11.4516    2.2774   61.0549 C   0  0  0  0  0  0  0  0  0  0  0  0
   10.4563   -0.7465   65.2640 C   0  0  0  0  0  0  0  0  0  0  0  0
    8.7279    2.0062   60.6009 C   0  0  0  0  0  0  0  0  0  0  0  0
    7.8733   -0.4581   64.2954 C   0  0  0  0  0  0  0  0  0  0  0  0
   10.8233    1.0687   61.4106 C   0  0  0  0  0  0  0  0  0  0  0  0
   10.2670   -0.6076   63.8777 C   0  0  0  0  0  0  0  0  0  0  0  0
    9.4454    0.9511   61.1850 C   0  0  0  0  0  0  0  0  0  0  0  0
    8.9514   -0.4941   63.3954 C   0  0  0  0  0  0  0  0  0  0  0  0
   11.6531   -0.0231   61.9706 C   0  0  0  0  0  0  0  0  0  0  0  0
   11.3877   -0.6955   63.0948 N   0  0  0  0  0  0  0  0  0  0  0  0
    8.5613   -0.5169   61.6524 S   0  0  0  0  0  0  0  0  0  0  0  0
   12.0582   -1.4204   63.3412 H   0  0  0  0  0  0  0  0  0  0  0  0
   14.0203   -0.6799   62.0048 C   0  0  0  0  0  0  0  0  0  0  0  0
   12.8510   -0.3347   59.8486 C   0  0  0  0  0  0  0  0  0  0  0  0
   15.2044    0.1371   61.5095 C   0  0  0  0  0  0  0  0  0  0  0  0
   14.0223    0.4855   59.3288 C   0  0  0  0  0  0  0  0  0  0  0  0
   12.7990   -0.3072   61.3039 N   0  0  0  0  0  0  0  0  0  0  0  0
   15.2937    0.0145   60.0029 N   0  0  0  0  0  0  0  0  0  0  0  0
   15.4072   -0.9845   59.7817 H   0  0  0  0  0  0  0  0  0  0  0  0
   16.5064    0.7144   59.4573 C   0  0  0  0  0  0  0  0  0  0  0  0
   16.7970    0.1977   58.0620 C   0  0  0  0  0  0  0  0  0  0  0  0
   17.1543    1.2836   57.2171 O   0  0  0  0  0  0  0  0  0  0  0  0
   17.7420    0.8302   56.0053 C   0  0  0  0  0  0  0  0  0  0  0  0
   19.1906    0.4641   56.2646 C   0  0  0  0  0  0  0  0  0  0  0  0
   19.4837   -0.7636   55.6087 O   0  0  0  0  0  0  0  0  0  0  0  0
   20.4144   -0.9648   55.7961 H   0  0  0  0  0  0  0  0  0  0  0  0
  1  3  1  0  0  0
  1  5  2  0  0  0
  2  4  1  0  0  0
  2  6  2  0  0  0
  3  7  2  0  0  0
  4  8  2  0  0  0
  5  9  1  0  0  0
  6 10  1  0  0  0
  7 11  1  0  0  0
  8 12  1  0  0  0
  9 11  2  0  0  0
  9 13  1  0  0  0
 10 12  2  0  0  0
 10 14  1  0  0  0
 11 15  1  0  0  0
 12 15  1  0  0  0
 13 21  1  0  0  0
 13 14  2  0  0  0
 17 19  1  0  0  0
 17 21  1  0  0  0
 18 20  1  0  0  0
 18 21  1  0  0  0
 19 22  1  0  0  0
 20 22  1  0  0  0
 24 25  1  0  0  0
 24 22  1  0  0  0
 25 26  1  0  0  0
 28 27  1  0  0  0
 28 29  1  0  0  0
 27 26  1  0  0  0
 14 16  1  0  0  0
 22 23  1  0  0  0
 29 30  1  0  0  0
M  CHG 1  14   1
M  CHG 1  22   1
M  END
> <minimizedAffinity>
-5.80789

> <CNNscore>
0.3965917230

> <CNNaffinity>
6.6057600975

> <CNN_VS>
2.6197898388

> <CNNaffinity_variance>
0.2801639140

$$$$



 30 33  0  0  0  0  0  0  0  0999 V2000
   12.2964   -1.8298   54.9057 C   0  0  0  0  0  0  0  0  0  0  0  0
   11.9588    3.7405   59.2777 C   0  0  0  0  0  0  0  0  0  0  0  0
   11.0102   -2.0763   55.3688 C   0  0  0  0  0  0  0  0  0  0  0  0
   10.6700    3.2479   59.4353 C   0  0  0  0  0  0  0  0  0  0  0  0
   13.2478   -1.2736   55.7617 C   0  0  0  0  0  0  0  0  0  0  0  0
   13.0129    2.8598   59.0344 C   0  0  0  0  0  0  0  0  0  0  0  0
   10.6757   -1.7572   56.6828 C   0  0  0  0  0  0  0  0  0  0  0  0
   10.4413    1.8752   59.3667 C   0  0  0  0  0  0  0  0  0  0  0  0
   12.9347   -0.9498   57.0956 C   0  0  0  0  0  0  0  0  0  0  0  0
   12.7996    1.4753   58.9140 C   0  0  0  0  0  0  0  0  0  0  0  0
   11.6286   -1.1899   57.5427 C   0  0  0  0  0  0  0  0  0  0  0  0
   11.4979    0.9841   59.1159 C   0  0  0  0  0  0  0  0  0  0  0  0
   14.0055   -0.4065   57.9629 C   0  0  0  0  0  0  0  0  0  0  0  0
   13.9099    0.7004   58.7059 N   0  0  0  0  0  0  0  0  0  0  0  0
   11.1308   -0.7623   59.1934 S   0  0  0  0  0  0  0  0  0  0  0  0
   14.7373    0.9369   59.2494 H   0  0  0  0  0  0  0  0  0  0  0  0
   15.6637   -1.8244   59.0925 C   0  0  0  0  0  0  0  0  0  0  0  0
   16.0095   -1.1302   56.7400 C   0  0  0  0  0  0  0  0  0  0  0  0
   17.1034   -1.4619   59.4257 C   0  0  0  0  0  0  0  0  0  0  0  0
   17.4531   -0.7605   57.0466 C   0  0  0  0  0  0  0  0  0  0  0  0
   15.1881   -1.0692   57.9413 N   0  0  0  0  0  0  0  0  0  0  0  0
   17.9542   -1.6256   58.1839 N   0  0  0  0  0  0  0  0  0  0  0  0
   17.8735   -2.6067   57.8828 H   0  0  0  0  0  0  0  0  0  0  0  0
   19.4097   -1.3835   58.4691 C   0  0  0  0  0  0  0  0  0  0  0  0
   19.8083   -0.0276   57.9206 C   0  0  0  0  0  0  0  0  0  0  0  0
   18.8941    0.3621   56.9042 O   0  0  0  0  0  0  0  0  0  0  0  0
   19.5291    0.4452   55.6356 C   0  0  0  0  0  0  0  0  0  0  0  0
   21.0060    0.1431   55.8007 C   0  0  0  0  0  0  0  0  0  0  0  0
   21.6864    0.4821   54.5984 O   0  0  0  0  0  0  0  0  0  0  0  0
   22.6240    0.2762   54.7409 H   0  0  0  0  0  0  0  0  0  0  0  0
  1  3  1  0  0  0
  1  5  2  0  0  0
  2  4  1  0  0  0
  2  6  2  0  0  0
  3  7  2  0  0  0
  4  8  2  0  0  0
  5  9  1  0  0  0
  6 10  1  0  0  0
  7 11  1  0  0  0
  8 12  1  0  0  0
  9 11  2  0  0  0
  9 13  1  0  0  0
 10 12  2  0  0  0
 10 14  1  0  0  0
 11 15  1  0  0  0
 12 15  1  0  0  0
 13 21  1  0  0  0
 13 14  2  0  0  0
 17 19  1  0  0  0
 17 21  1  0  0  0
 18 20  1  0  0  0
 18 21  1  0  0  0
 19 22  1  0  0  0
 20 22  1  0  0  0
 24 25  1  0  0  0
 24 22  1  0  0  0
 25 26  1  0  0  0
 28 27  1  0  0  0
 28 29  1  0  0  0
 27 26  1  0  0  0
 14 16  1  0  0  0
 22 23  1  0  0  0
 29 30  1  0  0  0
M  CHG 1  14   1
M  CHG 1  22   1
M  END
> <minimizedAffinity>
3.27138

> <CNNscore>
0.3851132989

> <CNNaffinity>
6.5238122940

> <CNN_VS>
2.5124068260

> <CNNaffinity_variance>
1.0058815479

$$$$



 30 33  0  0  0  0  0  0  0  0999 V2000
    9.0223   -2.3102   59.3050 C   0  0  0  0  0  0  0  0  0  0  0  0
    6.6389    1.0588   65.0693 C   0  0  0  0  0  0  0  0  0  0  0  0
    8.5857   -3.4453   59.9763 C   0  0  0  0  0  0  0  0  0  0  0  0
    6.2537   -0.2372   65.3864 C   0  0  0  0  0  0  0  0  0  0  0  0
    9.5470   -1.2364   60.0254 C   0  0  0  0  0  0  0  0  0  0  0  0
    7.7988    1.2751   64.3251 C   0  0  0  0  0  0  0  0  0  0  0  0
    8.6655   -3.5001   61.3659 C   0  0  0  0  0  0  0  0  0  0  0  0
    7.0383   -1.3122   64.9740 C   0  0  0  0  0  0  0  0  0  0  0  0
    9.6442   -1.2722   61.4295 C   0  0  0  0  0  0  0  0  0  0  0  0
    8.5812    0.2044   63.8576 C   0  0  0  0  0  0  0  0  0  0  0  0
    9.1849   -2.4179   62.0928 C   0  0  0  0  0  0  0  0  0  0  0  0
    8.2042   -1.1008   64.2193 C   0  0  0  0  0  0  0  0  0  0  0  0
   10.2550   -0.1170   62.1271 C   0  0  0  0  0  0  0  0  0  0  0  0
    9.7156    0.5322   63.1633 N   0  0  0  0  0  0  0  0  0  0  0  0
    9.2192   -2.5274   63.8653 S   0  0  0  0  0  0  0  0  0  0  0  0
   10.2659    1.3053   63.5313 H   0  0  0  0  0  0  0  0  0  0  0  0
   11.4735    1.4274   60.6554 C   0  0  0  0  0  0  0  0  0  0  0  0
   12.7102   -0.1839   62.0731 C   0  0  0  0  0  0  0  0  0  0  0  0
   12.3395    1.0609   59.4592 C   0  0  0  0  0  0  0  0  0  0  0  0
   13.5904   -0.5680   60.8931 C   0  0  0  0  0  0  0  0  0  0  0  0
   11.4276    0.3372   61.6203 N   0  0  0  0  0  0  0  0  0  0  0  0
   13.6994    0.6135   59.9522 N   0  0  0  0  0  0  0  0  0  0  0  0
   14.1058    1.3948   60.4853 H   0  0  0  0  0  0  0  0  0  0  0  0
   14.6414    0.3354   58.8148 C   0  0  0  0  0  0  0  0  0  0  0  0
   13.8550   -0.1945   57.6319 C   0  0  0  0  0  0  0  0  0  0  0  0
   14.7407   -0.8223   56.7143 O   0  0  0  0  0  0  0  0  0  0  0  0
   14.0317   -1.5160   55.6967 C   0  0  0  0  0  0  0  0  0  0  0  0
   14.6979   -1.2504   54.3605 C   0  0  0  0  0  0  0  0  0  0  0  0
   14.0228   -1.9897   53.3501 O   0  0  0  0  0  0  0  0  0  0  0  0
   14.4746   -1.7957   52.5134 H   0  0  0  0  0  0  0  0  0  0  0  0
  1  3  1  0  0  0
  1  5  2  0  0  0
  2  4  1  0  0  0
  2  6  2  0  0  0
  3  7  2  0  0  0
  4  8  2  0  0  0
  5  9  1  0  0  0
  6 10  1  0  0  0
  7 11  1  0  0  0
  8 12  1  0  0  0
  9 11  2  0  0  0
  9 13  1  0  0  0
 10 12  2  0  0  0
 10 14  1  0  0  0
 11 15  1  0  0  0
 12 15  1  0  0  0
 13 21  1  0  0  0
 13 14  2  0  0  0
 17 19  1  0  0  0
 17 21  1  0  0  0
 18 20  1  0  0  0
 18 21  1  0  0  0
 19 22  1  0  0  0
 20 22  1  0  0  0
 24 25  1  0  0  0
 24 22  1  0  0  0
 25 26  1  0  0  0
 28 27  1  0  0  0
 28 29  1  0  0  0
 27 26  1  0  0  0
 14 16  1  0  0  0
 22 23  1  0  0  0
 29 30  1  0  0  0
M  CHG 1  14   1
M  CHG 1  22   1
M  END
> <minimizedAffinity>
-8.44674

> <CNNscore>
0.3797729015

> <CNNaffinity>
6.3783645630

> <CNN_VS>
2.4223299026

> <CNNaffinity_variance>
0.0167311653

$$$$



 30 33  0  0  0  0  0  0  0  0999 V2000
    9.7369   -1.7095   66.2553 C   0  0  0  0  0  0  0  0  0  0  0  0
    4.1183   -5.3709   63.9570 C   0  0  0  0  0  0  0  0  0  0  0  0
    8.7877   -1.0104   66.9900 C   0  0  0  0  0  0  0  0  0  0  0  0
    3.4897   -4.5404   64.8756 C   0  0  0  0  0  0  0  0  0  0  0  0
    9.4129   -2.1980   64.9890 C   0  0  0  0  0  0  0  0  0  0  0  0
    5.2315   -4.9102   63.2539 C   0  0  0  0  0  0  0  0  0  0  0  0
    7.5145   -0.8103   66.4614 C   0  0  0  0  0  0  0  0  0  0  0  0
    3.9648   -3.2460   65.0757 C   0  0  0  0  0  0  0  0  0  0  0  0
    8.1352   -2.0016   64.4314 C   0  0  0  0  0  0  0  0  0  0  0  0
    5.7578   -3.6249   63.4731 C   0  0  0  0  0  0  0  0  0  0  0  0
    7.1840   -1.3082   65.1918 C   0  0  0  0  0  0  0  0  0  0  0  0
    5.0891   -2.7787   64.3748 C   0  0  0  0  0  0  0  0  0  0  0  0
    7.8740   -2.5055   63.0632 C   0  0  0  0  0  0  0  0  0  0  0  0
    6.8338   -3.2647   62.7057 N   0  0  0  0  0  0  0  0  0  0  0  0
    5.5312   -1.0614   64.5897 S   0  0  0  0  0  0  0  0  0  0  0  0
    6.7982   -3.5254   61.7226 H   0  0  0  0  0  0  0  0  0  0  0  0
    9.5940   -0.9837   62.1903 C   0  0  0  0  0  0  0  0  0  0  0  0
    9.1362   -3.1354   61.0519 C   0  0  0  0  0  0  0  0  0  0  0  0
    9.5809   -0.2575   60.8534 C   0  0  0  0  0  0  0  0  0  0  0  0
    9.1186   -2.4336   59.7021 C   0  0  0  0  0  0  0  0  0  0  0  0
    8.8086   -2.2088   62.1269 N   0  0  0  0  0  0  0  0  0  0  0  0
   10.0173   -1.2165   59.7659 N   0  0  0  0  0  0  0  0  0  0  0  0
   10.9630   -1.5447   60.0063 H   0  0  0  0  0  0  0  0  0  0  0  0
   10.1272   -0.5340   58.4315 C   0  0  0  0  0  0  0  0  0  0  0  0
    9.2453   -1.2513   57.4284 C   0  0  0  0  0  0  0  0  0  0  0  0
   10.0231   -1.6413   56.3043 O   0  0  0  0  0  0  0  0  0  0  0  0
   11.2104   -0.8677   56.1978 C   0  0  0  0  0  0  0  0  0  0  0  0
   11.8781   -1.1664   54.8694 C   0  0  0  0  0  0  0  0  0  0  0  0
   12.7751   -2.2578   55.0358 O   0  0  0  0  0  0  0  0  0  0  0  0
   13.1817   -2.4193   54.1695 H   0  0  0  0  0  0  0  0  0  0  0  0
  1  3  1  0  0  0
  1  5  2  0  0  0
  2  4  1  0  0  0
  2  6  2  0  0  0
  3  7  2  0  0  0
  4  8  2  0  0  0
  5  9  1  0  0  0
  6 10  1  0  0  0
  7 11  1  0  0  0
  8 12  1  0  0  0
  9 11  2  0  0  0
  9 13  1  0  0  0
 10 12  2  0  0  0
 10 14  1  0  0  0
 11 15  1  0  0  0
 12 15  1  0  0  0
 13 21  1  0  0  0
 13 14  2  0  0  0
 17 19  1  0  0  0
 17 21  1  0  0  0
 18 20  1  0  0  0
 18 21  1  0  0  0
 19 22  1  0  0  0
 20 22  1  0  0  0
 24 25  1  0  0  0
 24 22  1  0  0  0
 25 26  1  0  0  0
 28 27  1  0  0  0
 28 29  1  0  0  0
 27 26  1  0  0  0
 14 16  1  0  0  0
 22 23  1  0  0  0
 29 30  1  0  0  0
M  CHG 1  14   1
M  CHG 1  22   1
M  END
> <minimizedAffinity>
-7.62975

> <CNNscore>
0.3578940332

> <CNNaffinity>
6.0827269554

> <CNN_VS>
2.1769716740

> <CNNaffinity_variance>
0.0446151793

$$$$



 21 23  0  0  0  0  0  0  0  0999 V2000
   13.6538   -0.3881   56.0673 C   0  0  0  0  0  0  0  0  0  0  0  0
   20.5057   -1.5800   58.4070 C   0  0  0  0  0  0  0  0  0  0  0  0
   14.0537    0.2713   54.9149 C   0  0  0  0  0  0  0  0  0  0  0  0
   21.0943   -0.9538   57.3190 C   0  0  0  0  0  0  0  0  0  0  0  0
   14.5882   -0.6805   57.0646 C   0  0  0  0  0  0  0  0  0  0  0  0
   19.1280   -1.4698   58.6151 C   0  0  0  0  0  0  0  0  0  0  0  0
   15.3882    0.6310   54.7595 C   0  0  0  0  0  0  0  0  0  0  0  0
   20.3033   -0.2242   56.4378 C   0  0  0  0  0  0  0  0  0  0  0  0
   15.9480   -0.3189   56.9448 C   0  0  0  0  0  0  0  0  0  0  0  0
   18.2976   -0.7272   57.7473 C   0  0  0  0  0  0  0  0  0  0  0  0
   16.3335    0.3346   55.7576 C   0  0  0  0  0  0  0  0  0  0  0  0
   18.9160   -0.1143   56.6396 C   0  0  0  0  0  0  0  0  0  0  0  0
   16.8981   -0.6263   57.9512 N   0  0  0  0  0  0  0  0  0  0  0  0
   18.0082    0.8642   55.4593 S   0  0  0  0  0  0  0  0  0  0  0  0
   16.3867   -0.9325   59.2934 C   0  0  0  0  0  0  0  0  0  0  0  0
   16.0780    0.3476   60.0654 C   0  0  0  0  0  0  0  0  0  0  0  0
   15.0131    0.1356   61.1341 C   0  0  0  0  0  0  0  0  0  0  0  0
   12.6570   -0.6073   61.4490 C   0  0  0  0  0  0  0  0  0  0  0  0
   13.2241    0.9986   59.6324 C   0  0  0  0  0  0  0  0  0  0  0  0
   13.7160   -0.1531   60.4745 N   0  0  0  0  0  0  0  0  0  0  0  0
   13.8615   -0.9426   59.8220 H   0  0  0  0  0  0  0  0  0  0  0  0
  1  3  1  0  0  0
  1  5  2  0  0  0
  2  4  1  0  0  0
  2  6  2  0  0  0
  3  7  2  0  0  0
  4  8  2  0  0  0
  5  9  1  0  0  0
  6 10  1  0  0  0
  7 11  1  0  0  0
  8 12  1  0  0  0
  9 11  2  0  0  0
  9 13  1  0  0  0
 10 12  2  0  0  0
 10 13  1  0  0  0
 11 14  1  0  0  0
 12 14  1  0  0  0
 18 20  1  0  0  0
 19 20  1  0  0  0
 16 15  1  0  0  0
 16 17  1  0  0  0
 15 13  1  0  0  0
 17 20  1  0  0  0
 20 21  1  0  0  0
M  CHG 1  20   1
M  END
> <minimizedAffinity>
-7.95934

> <CNNscore>
0.8719500899

> <CNNaffinity>
6.8071708679

> <CNN_VS>
5.9355130196

> <CNNaffinity_variance>
0.1860033125

$$$$



 21 23  0  0  0  0  0  0  0  0999 V2000
    9.3259   -2.3171   59.2212 C   0  0  0  0  0  0  0  0  0  0  0  0
    8.3230    1.0008   65.6887 C   0  0  0  0  0  0  0  0  0  0  0  0
    8.7413   -3.5074   59.6264 C   0  0  0  0  0  0  0  0  0  0  0  0
    7.7105   -0.0979   66.2720 C   0  0  0  0  0  0  0  0  0  0  0  0
    9.6173   -1.3260   60.1625 C   0  0  0  0  0  0  0  0  0  0  0  0
    8.9532    0.8721   64.4479 C   0  0  0  0  0  0  0  0  0  0  0  0
    8.4434   -3.7014   60.9710 C   0  0  0  0  0  0  0  0  0  0  0  0
    7.7238   -1.3213   65.6104 C   0  0  0  0  0  0  0  0  0  0  0  0
    9.3396   -1.4950   61.5368 C   0  0  0  0  0  0  0  0  0  0  0  0
    8.9961   -0.3574   63.7548 C   0  0  0  0  0  0  0  0  0  0  0  0
    8.7298   -2.7054   61.9217 C   0  0  0  0  0  0  0  0  0  0  0  0
    8.3521   -1.4551   64.3595 C   0  0  0  0  0  0  0  0  0  0  0  0
    9.6241   -0.4848   62.4900 N   0  0  0  0  0  0  0  0  0  0  0  0
    8.3257   -3.0747   63.6172 S   0  0  0  0  0  0  0  0  0  0  0  0
   10.5942    0.5502   62.1096 C   0  0  0  0  0  0  0  0  0  0  0  0
   11.9882    0.2100   62.6299 C   0  0  0  0  0  0  0  0  0  0  0  0
   12.8189   -0.5497   61.6032 C   0  0  0  0  0  0  0  0  0  0  0  0
   15.1261    0.0554   60.8873 C   0  0  0  0  0  0  0  0  0  0  0  0
   13.1833    0.6214   59.4362 C   0  0  0  0  0  0  0  0  0  0  0  0
   13.6606    0.4142   60.8528 N   0  0  0  0  0  0  0  0  0  0  0  0
   13.5805    1.3342   61.3189 H   0  0  0  0  0  0  0  0  0  0  0  0
  1  3  1  0  0  0
  1  5  2  0  0  0
  2  4  1  0  0  0
  2  6  2  0  0  0
  3  7  2  0  0  0
  4  8  2  0  0  0
  5  9  1  0  0  0
  6 10  1  0  0  0
  7 11  1  0  0  0
  8 12  1  0  0  0
  9 11  2  0  0  0
  9 13  1  0  0  0
 10 12  2  0  0  0
 10 13  1  0  0  0
 11 14  1  0  0  0
 12 14  1  0  0  0
 18 20  1  0  0  0
 19 20  1  0  0  0
 16 15  1  0  0  0
 16 17  1  0  0  0
 15 13  1  0  0  0
 17 20  1  0  0  0
 20 21  1  0  0  0
M  CHG 1  20   1
M  END
> <minimizedAffinity>
-7.28709

> <CNNscore>
0.7467709780

> <CNNaffinity>
6.0314092636

> <CNN_VS>
4.5040812492

> <CNNaffinity_variance>
0.0828790367

$$$$



 21 23  0  0  0  0  0  0  0  0999 V2000
   12.9088    0.0421   53.8549 C   0  0  0  0  0  0  0  0  0  0  0  0
   18.0211   -1.3207   58.9392 C   0  0  0  0  0  0  0  0  0  0  0  0
   13.8117    0.5636   52.9408 C   0  0  0  0  0  0  0  0  0  0  0  0
   19.0649   -0.8371   58.1652 C   0  0  0  0  0  0  0  0  0  0  0  0
   13.3116   -0.2080   55.1696 C   0  0  0  0  0  0  0  0  0  0  0  0
   16.6987   -1.1105   58.5385 C   0  0  0  0  0  0  0  0  0  0  0  0
   15.1171    0.8278   53.3417 C   0  0  0  0  0  0  0  0  0  0  0  0
   18.7843   -0.1500   56.9888 C   0  0  0  0  0  0  0  0  0  0  0  0
   14.6252    0.0600   55.6132 C   0  0  0  0  0  0  0  0  0  0  0  0
   16.3782   -0.4068   57.3569 C   0  0  0  0  0  0  0  0  0  0  0  0
   15.5290    0.5732   54.6620 C   0  0  0  0  0  0  0  0  0  0  0  0
   17.4558    0.0600   56.5784 C   0  0  0  0  0  0  0  0  0  0  0  0
   15.0370   -0.2049   56.9438 N   0  0  0  0  0  0  0  0  0  0  0  0
   17.2174    0.9727   55.0669 S   0  0  0  0  0  0  0  0  0  0  0  0
   13.9872   -0.3508   57.9605 C   0  0  0  0  0  0  0  0  0  0  0  0
   14.0823    0.7568   59.0065 C   0  0  0  0  0  0  0  0  0  0  0  0
   13.4287    0.3639   60.3254 C   0  0  0  0  0  0  0  0  0  0  0  0
   15.7429    0.3646   61.2456 C   0  0  0  0  0  0  0  0  0  0  0  0
   13.8904   -0.6871   62.5351 C   0  0  0  0  0  0  0  0  0  0  0  0
   14.4201   -0.3570   61.1611 N   0  0  0  0  0  0  0  0  0  0  0  0
   14.6180   -1.2644   60.7054 H   0  0  0  0  0  0  0  0  0  0  0  0
  1  3  1  0  0  0
  1  5  2  0  0  0
  2  4  1  0  0  0
  2  6  2  0  0  0
  3  7  2  0  0  0
  4  8  2  0  0  0
  5  9  1  0  0  0
  6 10  1  0  0  0
  7 11  1  0  0  0
  8 12  1  0  0  0
  9 11  2  0  0  0
  9 13  1  0  0  0
 10 12  2  0  0  0
 10 13  1  0  0  0
 11 14  1  0  0  0
 12 14  1  0  0  0
 18 20  1  0  0  0
 19 20  1  0  0  0
 16 15  1  0  0  0
 16 17  1  0  0  0
 15 13  1  0  0  0
 17 20  1  0  0  0
 20 21  1  0  0  0
M  CHG 1  20   1
M  END
> <minimizedAffinity>
-6.09039

> <CNNscore>
0.6110292077

> <CNNaffinity>
6.4328918457

> <CNN_VS>
3.9306848049

> <CNNaffinity_variance>
0.3037870526

$$$$



 21 23  0  0  0  0  0  0  0  0999 V2000
   12.1456   -0.9130   54.7465 C   0  0  0  0  0  0  0  0  0  0  0  0
   18.0258   -0.9800   59.1352 C   0  0  0  0  0  0  0  0  0  0  0  0
   12.8811   -0.6747   53.5954 C   0  0  0  0  0  0  0  0  0  0  0  0
   18.9234   -0.7440   58.1051 C   0  0  0  0  0  0  0  0  0  0  0  0
   12.7565   -0.8115   55.9993 C   0  0  0  0  0  0  0  0  0  0  0  0
   16.6525   -0.8553   58.9072 C   0  0  0  0  0  0  0  0  0  0  0  0
   14.2275   -0.3419   53.6995 C   0  0  0  0  0  0  0  0  0  0  0  0
   18.4457   -0.3902   56.8477 C   0  0  0  0  0  0  0  0  0  0  0  0
   14.1177   -0.4637   56.1417 C   0  0  0  0  0  0  0  0  0  0  0  0
   16.1341   -0.4862   57.6467 C   0  0  0  0  0  0  0  0  0  0  0  0
   14.8485   -0.2434   54.9574 C   0  0  0  0  0  0  0  0  0  0  0  0
   17.0648   -0.2682   56.6115 C   0  0  0  0  0  0  0  0  0  0  0  0
   14.7405   -0.3725   57.4121 N   0  0  0  0  0  0  0  0  0  0  0  0
   16.5709    0.2124   54.9684 S   0  0  0  0  0  0  0  0  0  0  0  0
   13.8682   -0.2181   58.5835 C   0  0  0  0  0  0  0  0  0  0  0  0
   13.6461    1.2567   58.9085 C   0  0  0  0  0  0  0  0  0  0  0  0
   12.1716    1.6391   58.8805 C   0  0  0  0  0  0  0  0  0  0  0  0
   10.8165    3.1427   60.3314 C   0  0  0  0  0  0  0  0  0  0  0  0
   11.0947    0.7441   60.9395 C   0  0  0  0  0  0  0  0  0  0  0  0
   11.7226    1.9378   60.2625 N   0  0  0  0  0  0  0  0  0  0  0  0
   12.5591    2.1767   60.8224 H   0  0  0  0  0  0  0  0  0  0  0  0
  1  3  1  0  0  0
  1  5  2  0  0  0
  2  4  1  0  0  0
  2  6  2  0  0  0
  3  7  2  0  0  0
  4  8  2  0  0  0
  5  9  1  0  0  0
  6 10  1  0  0  0
  7 11  1  0  0  0
  8 12  1  0  0  0
  9 11  2  0  0  0
  9 13  1  0  0  0
 10 12  2  0  0  0
 10 13  1  0  0  0
 11 14  1  0  0  0
 12 14  1  0  0  0
 18 20  1  0  0  0
 19 20  1  0  0  0
 16 15  1  0  0  0
 16 17  1  0  0  0
 15 13  1  0  0  0
 17 20  1  0  0  0
 20 21  1  0  0  0
M  CHG 1  20   1
M  END
> <minimizedAffinity>
-7.38159

> <CNNscore>
0.5199132562

> <CNNaffinity>
6.0580682755

> <CNN_VS>
3.1496698856

> <CNNaffinity_variance>
0.1116664186

$$$$



 21 23  0  0  0  0  0  0  0  0999 V2000
    7.4138   -0.3632   65.9273 C   0  0  0  0  0  0  0  0  0  0  0  0
    8.6003   -3.2040   59.2666 C   0  0  0  0  0  0  0  0  0  0  0  0
    8.2833    0.7005   65.7400 C   0  0  0  0  0  0  0  0  0  0  0  0
    9.5021   -2.2183   58.8956 C   0  0  0  0  0  0  0  0  0  0  0  0
    7.3891   -1.4154   65.0079 C   0  0  0  0  0  0  0  0  0  0  0  0
    8.1755   -3.2979   60.5948 C   0  0  0  0  0  0  0  0  0  0  0  0
    9.1216    0.7129   64.6302 C   0  0  0  0  0  0  0  0  0  0  0  0
    9.9725   -1.3248   59.8521 C   0  0  0  0  0  0  0  0  0  0  0  0
    8.2349   -1.4408   63.8773 C   0  0  0  0  0  0  0  0  0  0  0  0
    8.6421   -2.4152   61.5934 C   0  0  0  0  0  0  0  0  0  0  0  0
    9.0971   -0.3408   63.6992 C   0  0  0  0  0  0  0  0  0  0  0  0
    9.5447   -1.4117   61.1889 C   0  0  0  0  0  0  0  0  0  0  0  0
    8.2013   -2.5024   62.9381 N   0  0  0  0  0  0  0  0  0  0  0  0
   10.2316   -0.2282   62.3300 S   0  0  0  0  0  0  0  0  0  0  0  0
    7.5988   -3.7698   63.3713 C   0  0  0  0  0  0  0  0  0  0  0  0
    6.0888   -3.7609   63.1490 C   0  0  0  0  0  0  0  0  0  0  0  0
    5.4940   -5.1635   63.1637 C   0  0  0  0  0  0  0  0  0  0  0  0
    3.1626   -5.7906   62.5529 C   0  0  0  0  0  0  0  0  0  0  0  0
    3.7971   -5.5372   64.9474 C   0  0  0  0  0  0  0  0  0  0  0  0
    4.0601   -5.0773   63.5343 N   0  0  0  0  0  0  0  0  0  0  0  0
    3.7841   -4.0808   63.5020 H   0  0  0  0  0  0  0  0  0  0  0  0
  1  3  1  0  0  0
  1  5  2  0  0  0
  2  4  1  0  0  0
  2  6  2  0  0  0
  3  7  2  0  0  0
  4  8  2  0  0  0
  5  9  1  0  0  0
  6 10  1  0  0  0
  7 11  1  0  0  0
  8 12  1  0  0  0
  9 11  2  0  0  0
  9 13  1  0  0  0
 10 12  2  0  0  0
 10 13  1  0  0  0
 11 14  1  0  0  0
 12 14  1  0  0  0
 18 20  1  0  0  0
 19 20  1  0  0  0
 16 15  1  0  0  0
 16 17  1  0  0  0
 15 13  1  0  0  0
 17 20  1  0  0  0
 20 21  1  0  0  0
M  CHG 1  20   1
M  END
> <minimizedAffinity>
-6.81132

> <CNNscore>
0.5150867701

> <CNNaffinity>
5.5467309952

> <CNN_VS>
2.8570477962

> <CNNaffinity_variance>
0.0549467094

$$$$



 21 23  0  0  0  0  0  0  0  0999 V2000
   17.5687    1.2983   57.0051 C   0  0  0  0  0  0  0  0  0  0  0  0
   10.3880   -0.1197   57.5249 C   0  0  0  0  0  0  0  0  0  0  0  0
   17.7209    0.6127   55.8095 C   0  0  0  0  0  0  0  0  0  0  0  0
   10.3423   -0.8439   56.3434 C   0  0  0  0  0  0  0  0  0  0  0  0
   16.3784    1.1849   57.7287 C   0  0  0  0  0  0  0  0  0  0  0  0
   11.6208    0.2450   58.0733 C   0  0  0  0  0  0  0  0  0  0  0  0
   16.6801   -0.1795   55.3367 C   0  0  0  0  0  0  0  0  0  0  0  0
   11.5291   -1.1964   55.7095 C   0  0  0  0  0  0  0  0  0  0  0  0
   15.3067    0.3799   57.2841 C   0  0  0  0  0  0  0  0  0  0  0  0
   12.8444   -0.1068   57.4626 C   0  0  0  0  0  0  0  0  0  0  0  0
   15.4783   -0.2930   56.0582 C   0  0  0  0  0  0  0  0  0  0  0  0
   12.7719   -0.8278   56.2542 C   0  0  0  0  0  0  0  0  0  0  0  0
   14.0946    0.2744   58.0121 N   0  0  0  0  0  0  0  0  0  0  0  0
   14.2249   -1.3541   55.3673 S   0  0  0  0  0  0  0  0  0  0  0  0
   14.1216    0.6568   59.4298 C   0  0  0  0  0  0  0  0  0  0  0  0
   14.1509   -0.5770   60.3279 C   0  0  0  0  0  0  0  0  0  0  0  0
   13.7450   -0.2584   61.7614 C   0  0  0  0  0  0  0  0  0  0  0  0
   11.3983   -0.9207   61.2549 C   0  0  0  0  0  0  0  0  0  0  0  0
   11.8736    0.6366   63.1389 C   0  0  0  0  0  0  0  0  0  0  0  0
   12.3197    0.1526   61.7808 N   0  0  0  0  0  0  0  0  0  0  0  0
   12.2140    0.9588   61.1412 H   0  0  0  0  0  0  0  0  0  0  0  0
  1  3  1  0  0  0
  1  5  2  0  0  0
  2  4  1  0  0  0
  2  6  2  0  0  0
  3  7  2  0  0  0
  4  8  2  0  0  0
  5  9  1  0  0  0
  6 10  1  0  0  0
  7 11  1  0  0  0
  8 12  1  0  0  0
  9 11  2  0  0  0
  9 13  1  0  0  0
 10 12  2  0  0  0
 10 13  1  0  0  0
 11 14  1  0  0  0
 12 14  1  0  0  0
 18 20  1  0  0  0
 19 20  1  0  0  0
 16 15  1  0  0  0
 16 17  1  0  0  0
 15 13  1  0  0  0
 17 20  1  0  0  0
 20 21  1  0  0  0
M  CHG 1  20   1
M  END
> <minimizedAffinity>
-7.04282

> <CNNscore>
0.5004336238

> <CNNaffinity>
5.8758859634

> <CNN_VS>
2.9404909611

> <CNNaffinity_variance>
0.3176615536

$$$$



 21 23  0  0  0  0  0  0  0  0999 V2000
    9.5152    2.9409   60.3855 C   0  0  0  0  0  0  0  0  0  0  0  0
    8.5530   -3.3667   64.0092 C   0  0  0  0  0  0  0  0  0  0  0  0
    9.1277    2.4150   59.1624 C   0  0  0  0  0  0  0  0  0  0  0  0
    8.1386   -4.0662   62.8861 C   0  0  0  0  0  0  0  0  0  0  0  0
    9.7388    2.0908   61.4720 C   0  0  0  0  0  0  0  0  0  0  0  0
    9.1018   -2.0885   63.8729 C   0  0  0  0  0  0  0  0  0  0  0  0
    8.9584    1.0409   59.0302 C   0  0  0  0  0  0  0  0  0  0  0  0
    8.2680   -3.4837   61.6297 C   0  0  0  0  0  0  0  0  0  0  0  0
    9.5883    0.6905   61.3694 C   0  0  0  0  0  0  0  0  0  0  0  0
    9.2588   -1.4727   62.6119 C   0  0  0  0  0  0  0  0  0  0  0  0
    9.1771    0.1814   60.1216 C   0  0  0  0  0  0  0  0  0  0  0  0
    8.8148   -2.1961   61.4873 C   0  0  0  0  0  0  0  0  0  0  0  0
    9.8035   -0.1708   62.4748 N   0  0  0  0  0  0  0  0  0  0  0  0
    8.9523   -1.5615   59.8281 S   0  0  0  0  0  0  0  0  0  0  0  0
   10.5946    0.3525   63.5961 C   0  0  0  0  0  0  0  0  0  0  0  0
   12.0778    0.4064   63.2399 C   0  0  0  0  0  0  0  0  0  0  0  0
   12.4011   -0.3986   61.9874 C   0  0  0  0  0  0  0  0  0  0  0  0
   14.8749   -0.1875   61.7937 C   0  0  0  0  0  0  0  0  0  0  0  0
   13.4406    0.0792   59.7757 C   0  0  0  0  0  0  0  0  0  0  0  0
   13.5278    0.2498   61.2727 N   0  0  0  0  0  0  0  0  0  0  0  0
   13.4701    1.2677   61.4481 H   0  0  0  0  0  0  0  0  0  0  0  0
  1  3  1  0  0  0
  1  5  2  0  0  0
  2  4  1  0  0  0
  2  6  2  0  0  0
  3  7  2  0  0  0
  4  8  2  0  0  0
  5  9  1  0  0  0
  6 10  1  0  0  0
  7 11  1  0  0  0
  8 12  1  0  0  0
  9 11  2  0  0  0
  9 13  1  0  0  0
 10 12  2  0  0  0
 10 13  1  0  0  0
 11 14  1  0  0  0
 12 14  1  0  0  0
 18 20  1  0  0  0
 19 20  1  0  0  0
 16 15  1  0  0  0
 16 17  1  0  0  0
 15 13  1  0  0  0
 17 20  1  0  0  0
 20 21  1  0  0  0
M  CHG 1  20   1
M  END
> <minimizedAffinity>
-6.42518

> <CNNscore>
0.4597131014

> <CNNaffinity>
6.1010594368

> <CNN_VS>
2.8047368526

> <CNNaffinity_variance>
0.0573263466

$$$$



 21 23  0  0  0  0  0  0  0  0999 V2000
    9.0105   -3.1299   58.9850 C   0  0  0  0  0  0  0  0  0  0  0  0
    9.4497   -2.1385   66.2422 C   0  0  0  0  0  0  0  0  0  0  0  0
    9.5753   -1.9006   58.6806 C   0  0  0  0  0  0  0  0  0  0  0  0
   10.0269   -0.8822   66.1378 C   0  0  0  0  0  0  0  0  0  0  0  0
    8.6323   -3.4186   60.2990 C   0  0  0  0  0  0  0  0  0  0  0  0
    8.9228   -2.7615   65.1075 C   0  0  0  0  0  0  0  0  0  0  0  0
    9.7666   -0.9653   59.6921 C   0  0  0  0  0  0  0  0  0  0  0  0
   10.0818   -0.2543   64.8979 C   0  0  0  0  0  0  0  0  0  0  0  0
    8.8008   -2.4877   61.3475 C   0  0  0  0  0  0  0  0  0  0  0  0
    8.9509   -2.1476   63.8362 C   0  0  0  0  0  0  0  0  0  0  0  0
    9.3925   -1.2526   61.0169 C   0  0  0  0  0  0  0  0  0  0  0  0
    9.5577   -0.8787   63.7521 C   0  0  0  0  0  0  0  0  0  0  0  0
    8.4281   -2.7852   62.6828 N   0  0  0  0  0  0  0  0  0  0  0  0
    9.6637    0.0301   62.2233 S   0  0  0  0  0  0  0  0  0  0  0  0
    7.4791   -3.8866   62.8908 C   0  0  0  0  0  0  0  0  0  0  0  0
    6.0566   -3.3581   63.0554 C   0  0  0  0  0  0  0  0  0  0  0  0
    5.1791   -4.3032   63.8665 C   0  0  0  0  0  0  0  0  0  0  0  0
    3.7438   -2.3405   64.4046 C   0  0  0  0  0  0  0  0  0  0  0  0
    3.6138   -4.3982   65.8008 C   0  0  0  0  0  0  0  0  0  0  0  0
    4.4992   -3.5335   64.9371 N   0  0  0  0  0  0  0  0  0  0  0  0
    5.2280   -3.1534   65.5652 H   0  0  0  0  0  0  0  0  0  0  0  0
  1  3  1  0  0  0
  1  5  2  0  0  0
  2  4  1  0  0  0
  2  6  2  0  0  0
  3  7  2  0  0  0
  4  8  2  0  0  0
  5  9  1  0  0  0
  6 10  1  0  0  0
  7 11  1  0  0  0
  8 12  1  0  0  0
  9 11  2  0  0  0
  9 13  1  0  0  0
 10 12  2  0  0  0
 10 13  1  0  0  0
 11 14  1  0  0  0
 12 14  1  0  0  0
 18 20  1  0  0  0
 19 20  1  0  0  0
 16 15  1  0  0  0
 16 17  1  0  0  0
 15 13  1  0  0  0
 17 20  1  0  0  0
 20 21  1  0  0  0
M  CHG 1  20   1
M  END
> <minimizedAffinity>
-6.54602

> <CNNscore>
0.4572603405

> <CNNaffinity>
5.5466456413

> <CNN_VS>
2.5362610817

> <CNNaffinity_variance>
0.0317905322

$$$$



 21 23  0  0  0  0  0  0  0  0999 V2000
    7.8844   -1.5194   57.9651 C   0  0  0  0  0  0  0  0  0  0  0  0
   10.2465    0.3673   64.6512 C   0  0  0  0  0  0  0  0  0  0  0  0
    7.2187   -2.6519   58.4088 C   0  0  0  0  0  0  0  0  0  0  0  0
    9.6455   -0.7129   65.2792 C   0  0  0  0  0  0  0  0  0  0  0  0
    8.7451   -0.8328   58.8260 C   0  0  0  0  0  0  0  0  0  0  0  0
   10.3105    0.4170   63.2559 C   0  0  0  0  0  0  0  0  0  0  0  0
    7.4100   -3.0916   59.7144 C   0  0  0  0  0  0  0  0  0  0  0  0
    9.1042   -1.7381   64.5106 C   0  0  0  0  0  0  0  0  0  0  0  0
    8.9717   -1.2587   60.1532 C   0  0  0  0  0  0  0  0  0  0  0  0
    9.7821   -0.6120   62.4459 C   0  0  0  0  0  0  0  0  0  0  0  0
    8.2709   -2.4016   60.5864 C   0  0  0  0  0  0  0  0  0  0  0  0
    9.1614   -1.6907   63.1064 C   0  0  0  0  0  0  0  0  0  0  0  0
    9.8356   -0.5552   61.0302 N   0  0  0  0  0  0  0  0  0  0  0  0
    8.4556   -3.0705   62.2273 S   0  0  0  0  0  0  0  0  0  0  0  0
   10.8160    0.3566   60.4267 C   0  0  0  0  0  0  0  0  0  0  0  0
   12.1837   -0.3112   60.3106 C   0  0  0  0  0  0  0  0  0  0  0  0
   13.0639    0.3531   59.2593 C   0  0  0  0  0  0  0  0  0  0  0  0
   15.0399   -0.3431   60.6057 C   0  0  0  0  0  0  0  0  0  0  0  0
   15.2581    1.4821   58.9261 C   0  0  0  0  0  0  0  0  0  0  0  0
   14.3336    0.7846   59.8937 N   0  0  0  0  0  0  0  0  0  0  0  0
   14.1026    1.4822   60.6217 H   0  0  0  0  0  0  0  0  0  0  0  0
  1  3  1  0  0  0
  1  5  2  0  0  0
  2  4  1  0  0  0
  2  6  2  0  0  0
  3  7  2  0  0  0
  4  8  2  0  0  0
  5  9  1  0  0  0
  6 10  1  0  0  0
  7 11  1  0  0  0
  8 12  1  0  0  0
  9 11  2  0  0  0
  9 13  1  0  0  0
 10 12  2  0  0  0
 10 13  1  0  0  0
 11 14  1  0  0  0
 12 14  1  0  0  0
 18 20  1  0  0  0
 19 20  1  0  0  0
 16 15  1  0  0  0
 16 17  1  0  0  0
 15 13  1  0  0  0
 17 20  1  0  0  0
 20 21  1  0  0  0
M  CHG 1  20   1
M  END
> <minimizedAffinity>
-6.99108

> <CNNscore>
0.3547224402

> <CNNaffinity>
5.6224985123

> <CNN_VS>
1.9944263697

> <CNNaffinity_variance>
0.2085344791

$$$$



 27 30  0  0  0  0  0  0  0  0999 V2000
   20.9222   -1.5623   58.4537 C   0  0  0  0  0  0  0  0  0  0  0  0
   21.5415   -1.0756   57.3125 C   0  0  0  0  0  0  0  0  0  0  0  0
   19.5432   -1.4075   58.6200 C   0  0  0  0  0  0  0  0  0  0  0  0
   20.7796   -0.4408   56.3373 C   0  0  0  0  0  0  0  0  0  0  0  0
   15.9116    0.2901   54.4734 C   0  0  0  0  0  0  0  0  0  0  0  0
   14.5683   -0.0283   54.6425 C   0  0  0  0  0  0  0  0  0  0  0  0
   15.0469   -0.7330   56.8981 C   0  0  0  0  0  0  0  0  0  0  0  0
   18.7419   -0.7576   57.6558 C   0  0  0  0  0  0  0  0  0  0  0  0
   16.4147   -0.4088   56.7645 C   0  0  0  0  0  0  0  0  0  0  0  0
   19.3910   -0.2868   56.4973 C   0  0  0  0  0  0  0  0  0  0  0  0
   16.8331    0.0967   55.5177 C   0  0  0  0  0  0  0  0  0  0  0  0
   14.1360   -0.5436   55.8552 C   0  0  0  0  0  0  0  0  0  0  0  0
   17.3409   -0.6121   57.8186 N   0  0  0  0  0  0  0  0  0  0  0  0
   18.5222    0.5623   55.1939 S   0  0  0  0  0  0  0  0  0  0  0  0
   12.0036   -1.2507   54.3372 C   0  0  0  0  0  0  0  0  0  0  0  0
   11.7032    0.2825   56.5057 O   0  0  0  0  0  0  0  0  0  0  0  0
   12.4098   -0.9748   56.0817 S   0  0  0  0  0  0  0  0  0  0  0  0
   16.8000   -0.7527   59.1768 C   0  0  0  0  0  0  0  0  0  0  0  0
   15.2780   -0.8299   59.1903 C   0  0  0  0  0  0  0  0  0  0  0  0
   13.6997   -0.7683   61.9675 C   0  0  0  0  0  0  0  0  0  0  0  0
   12.2841   -0.5548   61.4471 C   0  0  0  0  0  0  0  0  0  0  0  0
   14.6613    0.2753   61.4086 C   0  0  0  0  0  0  0  0  0  0  0  0
   12.2395   -0.5052   59.9278 C   0  0  0  0  0  0  0  0  0  0  0  0
   14.6319    0.3709   59.8807 C   0  0  0  0  0  0  0  0  0  0  0  0
   12.6835    1.9398   59.5329 C   0  0  0  0  0  0  0  0  0  0  0  0
   13.2004    0.5297   59.3868 N   0  0  0  0  0  0  0  0  0  0  0  0
   13.2445    0.3689   58.3380 H   0  0  0  0  0  0  0  0  0  0  0  0
  1  2  1  0  0  0
  1  3  2  0  0  0
  2  4  2  0  0  0
  3  8  1  0  0  0
  4 10  1  0  0  0
  5  6  2  0  0  0
  5 11  1  0  0  0
  6 12  1  0  0  0
  7  9  1  0  0  0
  7 12  2  0  0  0
  8 10  2  0  0  0
  8 13  1  0  0  0
  9 11  2  0  0  0
  9 13  1  0  0  0
 10 14  1  0  0  0
 11 14  1  0  0  0
 12 17  1  0  0  0
 20 21  1  0  0  0
 20 22  1  0  0  0
 21 23  1  0  0  0
 22 24  1  0  0  0
 23 26  1  0  0  0
 24 19  1  0  0  0
 24 26  1  0  0  0
 25 26  1  0  0  0
 15 17  1  0  0  0
 19 18  1  0  0  0
 18 13  1  0  0  0
 16 17  2  0  0  0
 26 27  1  0  0  0
M  CHG 1  26   1
M  END
> <minimizedAffinity>
-9.04727

> <CNNscore>
0.7733749151

> <CNNaffinity>
7.5138115883

> <CNN_VS>
5.8109931946

> <CNNaffinity_variance>
0.1702876389

$$$$



 27 30  0  0  0  0  0  0  0  0999 V2000
   19.3468   -1.3179   59.1825 C   0  0  0  0  0  0  0  0  0  0  0  0
   20.2632   -0.8170   58.2703 C   0  0  0  0  0  0  0  0  0  0  0  0
   17.9769   -1.2047   58.9302 C   0  0  0  0  0  0  0  0  0  0  0  0
   19.8077   -0.2097   57.1049 C   0  0  0  0  0  0  0  0  0  0  0  0
   15.6941    0.3646   53.8714 C   0  0  0  0  0  0  0  0  0  0  0  0
   14.3707    0.0058   53.6385 C   0  0  0  0  0  0  0  0  0  0  0  0
   14.1775   -0.6750   55.9434 C   0  0  0  0  0  0  0  0  0  0  0  0
   17.4801   -0.5835   57.7634 C   0  0  0  0  0  0  0  0  0  0  0  0
   15.5137   -0.3096   56.2175 C   0  0  0  0  0  0  0  0  0  0  0  0
   18.4304   -0.0976   56.8437 C   0  0  0  0  0  0  0  0  0  0  0  0
   16.2691    0.2036   55.1445 C   0  0  0  0  0  0  0  0  0  0  0  0
   13.6125   -0.5177   54.6748 C   0  0  0  0  0  0  0  0  0  0  0  0
   16.0905   -0.4804   57.5014 N   0  0  0  0  0  0  0  0  0  0  0  0
   17.9644    0.7193   55.3304 S   0  0  0  0  0  0  0  0  0  0  0  0
   11.3310   -0.8697   56.0971 C   0  0  0  0  0  0  0  0  0  0  0  0
   11.9294   -2.4628   54.0362 O   0  0  0  0  0  0  0  0  0  0  0  0
   11.9096   -1.0007   54.3846 S   0  0  0  0  0  0  0  0  0  0  0  0
   15.1748   -0.6321   58.6396 C   0  0  0  0  0  0  0  0  0  0  0  0
   14.3834    0.6394   58.9215 C   0  0  0  0  0  0  0  0  0  0  0  0
   12.0851    2.8449   59.1689 C   0  0  0  0  0  0  0  0  0  0  0  0
   11.3699    2.3242   60.4090 C   0  0  0  0  0  0  0  0  0  0  0  0
   12.2327    1.7544   58.1128 C   0  0  0  0  0  0  0  0  0  0  0  0
   12.0429    1.0825   60.9728 C   0  0  0  0  0  0  0  0  0  0  0  0
   12.8887    0.4779   58.6463 C   0  0  0  0  0  0  0  0  0  0  0  0
   10.8931   -0.7125   59.6359 C   0  0  0  0  0  0  0  0  0  0  0  0
   12.1873    0.0116   59.9147 N   0  0  0  0  0  0  0  0  0  0  0  0
   12.8231   -0.7294   60.3324 H   0  0  0  0  0  0  0  0  0  0  0  0
  1  2  1  0  0  0
  1  3  2  0  0  0
  2  4  2  0  0  0
  3  8  1  0  0  0
  4 10  1  0  0  0
  5  6  2  0  0  0
  5 11  1  0  0  0
  6 12  1  0  0  0
  7  9  1  0  0  0
  7 12  2  0  0  0
  8 10  2  0  0  0
  8 13  1  0  0  0
  9 11  2  0  0  0
  9 13  1  0  0  0
 10 14  1  0  0  0
 11 14  1  0  0  0
 12 17  1  0  0  0
 20 21  1  0  0  0
 20 22  1  0  0  0
 21 23  1  0  0  0
 22 24  1  0  0  0
 23 26  1  0  0  0
 24 19  1  0  0  0
 24 26  1  0  0  0
 25 26  1  0  0  0
 15 17  1  0  0  0
 19 18  1  0  0  0
 18 13  1  0  0  0
 16 17  2  0  0  0
 26 27  1  0  0  0
M  CHG 1  26   1
M  END
> <minimizedAffinity>
-7.32400

> <CNNscore>
0.5841176510

> <CNNaffinity>
7.0990500450

> <CNN_VS>
4.1466803551

> <CNNaffinity_variance>
0.1609591246

$$$$



 27 30  0  0  0  0  0  0  0  0999 V2000
    3.1932   -4.0541   65.4834 C   0  0  0  0  0  0  0  0  0  0  0  0
    2.3020   -4.8658   64.7982 C   0  0  0  0  0  0  0  0  0  0  0  0
    4.4017   -3.6841   64.8868 C   0  0  0  0  0  0  0  0  0  0  0  0
    2.6183   -5.3005   63.5155 C   0  0  0  0  0  0  0  0  0  0  0  0
    5.6820   -4.4654   59.3176 C   0  0  0  0  0  0  0  0  0  0  0  0
    6.6908   -3.6697   58.7850 C   0  0  0  0  0  0  0  0  0  0  0  0
    7.2311   -2.9121   61.0093 C   0  0  0  0  0  0  0  0  0  0  0  0
    4.7597   -4.1174   63.5913 C   0  0  0  0  0  0  0  0  0  0  0  0
    6.2239   -3.7176   61.5844 C   0  0  0  0  0  0  0  0  0  0  0  0
    3.8306   -4.9272   62.9085 C   0  0  0  0  0  0  0  0  0  0  0  0
    5.4402   -4.4879   60.7026 C   0  0  0  0  0  0  0  0  0  0  0  0
    7.4640   -2.8896   59.6314 C   0  0  0  0  0  0  0  0  0  0  0  0
    5.9798   -3.7314   62.9810 N   0  0  0  0  0  0  0  0  0  0  0  0
    4.1380   -5.5624   61.2724 S   0  0  0  0  0  0  0  0  0  0  0  0
    9.5767   -1.4420   60.5219 C   0  0  0  0  0  0  0  0  0  0  0  0
    8.0883   -0.5895   58.4722 O   0  0  0  0  0  0  0  0  0  0  0  0
    8.7570   -1.8456   58.9566 S   0  0  0  0  0  0  0  0  0  0  0  0
    7.0499   -3.2415   63.8596 C   0  0  0  0  0  0  0  0  0  0  0  0
    6.8346   -1.7940   64.2851 C   0  0  0  0  0  0  0  0  0  0  0  0
    8.1830    0.9979   65.0559 C   0  0  0  0  0  0  0  0  0  0  0  0
    9.6509    0.6116   64.9280 C   0  0  0  0  0  0  0  0  0  0  0  0
    7.4311    0.0331   65.9669 C   0  0  0  0  0  0  0  0  0  0  0  0
    9.8209   -0.8320   64.4811 C   0  0  0  0  0  0  0  0  0  0  0  0
    7.5935   -1.4347   65.5621 C   0  0  0  0  0  0  0  0  0  0  0  0
    9.7715   -2.0116   66.7031 C   0  0  0  0  0  0  0  0  0  0  0  0
    9.0669   -1.7772   65.3895 N   0  0  0  0  0  0  0  0  0  0  0  0
    9.0819   -2.7227   64.9062 H   0  0  0  0  0  0  0  0  0  0  0  0
  1  2  1  0  0  0
  1  3  2  0  0  0
  2  4  2  0  0  0
  3  8  1  0  0  0
  4 10  1  0  0  0
  5  6  2  0  0  0
  5 11  1  0  0  0
  6 12  1  0  0  0
  7  9  1  0  0  0
  7 12  2  0  0  0
  8 10  2  0  0  0
  8 13  1  0  0  0
  9 11  2  0  0  0
  9 13  1  0  0  0
 10 14  1  0  0  0
 11 14  1  0  0  0
 12 17  1  0  0  0
 20 21  1  0  0  0
 20 22  1  0  0  0
 21 23  1  0  0  0
 22 24  1  0  0  0
 23 26  1  0  0  0
 24 19  1  0  0  0
 24 26  1  0  0  0
 25 26  1  0  0  0
 15 17  1  0  0  0
 19 18  1  0  0  0
 18 13  1  0  0  0
 16 17  2  0  0  0
 26 27  1  0  0  0
M  CHG 1  26   1
M  END
> <minimizedAffinity>
-7.52191

> <CNNscore>
0.5422369242

> <CNNaffinity>
6.6484093666

> <CNN_VS>
3.6050131321

> <CNNaffinity_variance>
0.0323877409

$$$$



 27 30  0  0  0  0  0  0  0  0999 V2000
    9.1443    0.5718   65.6497 C   0  0  0  0  0  0  0  0  0  0  0  0
    8.6266   -0.5686   66.2448 C   0  0  0  0  0  0  0  0  0  0  0  0
    9.4623    0.5666   64.2888 C   0  0  0  0  0  0  0  0  0  0  0  0
    8.4220   -1.7097   65.4764 C   0  0  0  0  0  0  0  0  0  0  0  0
    7.9208   -3.5714   60.5785 C   0  0  0  0  0  0  0  0  0  0  0  0
    7.9088   -3.2355   59.2289 C   0  0  0  0  0  0  0  0  0  0  0  0
    8.9986   -1.1527   59.7649 C   0  0  0  0  0  0  0  0  0  0  0  0
    9.2786   -0.5779   63.4823 C   0  0  0  0  0  0  0  0  0  0  0  0
    9.0384   -1.4676   61.1408 C   0  0  0  0  0  0  0  0  0  0  0  0
    8.7354   -1.7188   64.1055 C   0  0  0  0  0  0  0  0  0  0  0  0
    8.4716   -2.6968   61.5319 C   0  0  0  0  0  0  0  0  0  0  0  0
    8.4453   -2.0233   58.8220 C   0  0  0  0  0  0  0  0  0  0  0  0
    9.5889   -0.5791   62.0988 N   0  0  0  0  0  0  0  0  0  0  0  0
    8.4525   -3.2433   63.2277 S   0  0  0  0  0  0  0  0  0  0  0  0
    7.2560   -2.8395   56.5261 C   0  0  0  0  0  0  0  0  0  0  0  0
    9.7692   -1.9302   56.5279 O   0  0  0  0  0  0  0  0  0  0  0  0
    8.4212   -1.5696   57.0868 S   0  0  0  0  0  0  0  0  0  0  0  0
   10.4975    0.4656   61.6089 C   0  0  0  0  0  0  0  0  0  0  0  0
   11.6461   -0.1037   60.7847 C   0  0  0  0  0  0  0  0  0  0  0  0
   10.8535    1.5747   58.1843 C   0  0  0  0  0  0  0  0  0  0  0  0
   11.8124    0.9487   57.1796 C   0  0  0  0  0  0  0  0  0  0  0  0
   11.5901    2.0597   59.4286 C   0  0  0  0  0  0  0  0  0  0  0  0
   12.6479   -0.1570   57.8055 C   0  0  0  0  0  0  0  0  0  0  0  0
   12.4599    0.9800   60.0783 C   0  0  0  0  0  0  0  0  0  0  0  0
   14.5760    1.1800   58.7142 C   0  0  0  0  0  0  0  0  0  0  0  0
   13.3687    0.3357   59.0404 N   0  0  0  0  0  0  0  0  0  0  0  0
   13.7669   -0.5286   59.5119 H   0  0  0  0  0  0  0  0  0  0  0  0
  1  2  1  0  0  0
  1  3  2  0  0  0
  2  4  2  0  0  0
  3  8  1  0  0  0
  4 10  1  0  0  0
  5  6  2  0  0  0
  5 11  1  0  0  0
  6 12  1  0  0  0
  7  9  1  0  0  0
  7 12  2  0  0  0
  8 10  2  0  0  0
  8 13  1  0  0  0
  9 11  2  0  0  0
  9 13  1  0  0  0
 10 14  1  0  0  0
 11 14  1  0  0  0
 12 17  1  0  0  0
 20 21  1  0  0  0
 20 22  1  0  0  0
 21 23  1  0  0  0
 22 24  1  0  0  0
 23 26  1  0  0  0
 24 19  1  0  0  0
 24 26  1  0  0  0
 25 26  1  0  0  0
 15 17  1  0  0  0
 19 18  1  0  0  0
 18 13  1  0  0  0
 16 17  2  0  0  0
 26 27  1  0  0  0
M  CHG 1  26   1
M  END
> <minimizedAffinity>
-8.06126

> <CNNscore>
0.4493998587

> <CNNaffinity>
6.7153449059

> <CNN_VS>
3.0178749561

> <CNNaffinity_variance>
0.1498492062

$$$$



 27 30  0  0  0  0  0  0  0  0999 V2000
   14.8832   -2.0091   54.5394 C   0  0  0  0  0  0  0  0  0  0  0  0
   14.1733   -1.5588   53.4367 C   0  0  0  0  0  0  0  0  0  0  0  0
   14.7853   -1.3311   55.7576 C   0  0  0  0  0  0  0  0  0  0  0  0
   13.3622   -0.4352   53.5562 C   0  0  0  0  0  0  0  0  0  0  0  0
   10.8765    2.7427   56.9368 C   0  0  0  0  0  0  0  0  0  0  0  0
   10.6127    2.9936   58.2791 C   0  0  0  0  0  0  0  0  0  0  0  0
   12.4888    1.6036   58.8802 C   0  0  0  0  0  0  0  0  0  0  0  0
   13.9810   -0.1805   55.9107 C   0  0  0  0  0  0  0  0  0  0  0  0
   12.7922    1.3382   57.5269 C   0  0  0  0  0  0  0  0  0  0  0  0
   13.2561    0.2478   54.7809 C   0  0  0  0  0  0  0  0  0  0  0  0
   11.9497    1.9172   56.5573 C   0  0  0  0  0  0  0  0  0  0  0  0
   11.4178    2.4208   59.2521 C   0  0  0  0  0  0  0  0  0  0  0  0
   13.8715    0.4995   57.1499 N   0  0  0  0  0  0  0  0  0  0  0  0
   12.2055    1.6864   54.8092 S   0  0  0  0  0  0  0  0  0  0  0  0
    9.3397    2.2121   60.9812 C   0  0  0  0  0  0  0  0  0  0  0  0
   11.1009    4.2127   61.1789 O   0  0  0  0  0  0  0  0  0  0  0  0
   11.0789    2.7219   60.9875 S   0  0  0  0  0  0  0  0  0  0  0  0
   14.9233    0.2612   58.1470 C   0  0  0  0  0  0  0  0  0  0  0  0
   14.4995   -0.7473   59.2081 C   0  0  0  0  0  0  0  0  0  0  0  0
   15.6897   -0.2401   62.1293 C   0  0  0  0  0  0  0  0  0  0  0  0
   14.8856   -1.2714   62.9106 C   0  0  0  0  0  0  0  0  0  0  0  0
   14.7803    0.6721   61.3126 C   0  0  0  0  0  0  0  0  0  0  0  0
   13.9544   -2.0666   62.0089 C   0  0  0  0  0  0  0  0  0  0  0  0
   13.8118   -0.0914   60.4051 C   0  0  0  0  0  0  0  0  0  0  0  0
   11.9259   -0.5777   62.0130 C   0  0  0  0  0  0  0  0  0  0  0  0
   13.0620   -1.1504   61.2017 N   0  0  0  0  0  0  0  0  0  0  0  0
   12.5888   -1.7658   60.4771 H   0  0  0  0  0  0  0  0  0  0  0  0
  1  2  1  0  0  0
  1  3  2  0  0  0
  2  4  2  0  0  0
  3  8  1  0  0  0
  4 10  1  0  0  0
  5  6  2  0  0  0
  5 11  1  0  0  0
  6 12  1  0  0  0
  7  9  1  0  0  0
  7 12  2  0  0  0
  8 10  2  0  0  0
  8 13  1  0  0  0
  9 11  2  0  0  0
  9 13  1  0  0  0
 10 14  1  0  0  0
 11 14  1  0  0  0
 12 17  1  0  0  0
 20 21  1  0  0  0
 20 22  1  0  0  0
 21 23  1  0  0  0
 22 24  1  0  0  0
 23 26  1  0  0  0
 24 19  1  0  0  0
 24 26  1  0  0  0
 25 26  1  0  0  0
 15 17  1  0  0  0
 19 18  1  0  0  0
 18 13  1  0  0  0
 16 17  2  0  0  0
 26 27  1  0  0  0
M  CHG 1  26   1
M  END
> <minimizedAffinity>
1.51995

> <CNNscore>
0.4438031018

> <CNNaffinity>
6.6541037560

> <CNN_VS>
2.9531118870

> <CNNaffinity_variance>
0.5540819764

$$$$



 27 30  0  0  0  0  0  0  0  0999 V2000
    4.7176   -5.0389   63.8161 C   0  0  0  0  0  0  0  0  0  0  0  0
    3.7896   -5.4957   62.8927 C   0  0  0  0  0  0  0  0  0  0  0  0
    5.8883   -4.4132   63.3789 C   0  0  0  0  0  0  0  0  0  0  0  0
    4.0313   -5.3201   61.5343 C   0  0  0  0  0  0  0  0  0  0  0  0
    6.8424   -2.6576   57.9685 C   0  0  0  0  0  0  0  0  0  0  0  0
    7.8166   -1.6821   57.7847 C   0  0  0  0  0  0  0  0  0  0  0  0
    8.4845   -1.9535   60.0855 C   0  0  0  0  0  0  0  0  0  0  0  0
    6.1708   -4.2296   62.0076 C   0  0  0  0  0  0  0  0  0  0  0  0
    7.5144   -2.9563   60.3031 C   0  0  0  0  0  0  0  0  0  0  0  0
    5.2052   -4.6866   61.0890 C   0  0  0  0  0  0  0  0  0  0  0  0
    6.6820   -3.2872   59.2155 C   0  0  0  0  0  0  0  0  0  0  0  0
    8.6363   -1.3272   58.8453 C   0  0  0  0  0  0  0  0  0  0  0  0
    7.3524   -3.5831   61.5644 N   0  0  0  0  0  0  0  0  0  0  0  0
    5.4177   -4.5379   59.3263 S   0  0  0  0  0  0  0  0  0  0  0  0
   10.6604   -0.7423   57.1387 C   0  0  0  0  0  0  0  0  0  0  0  0
   10.8688   -0.2238   59.7523 O   0  0  0  0  0  0  0  0  0  0  0  0
    9.8854   -0.0585   58.6275 S   0  0  0  0  0  0  0  0  0  0  0  0
    8.4709   -3.4953   62.5121 C   0  0  0  0  0  0  0  0  0  0  0  0
    8.5725   -2.1217   63.1645 C   0  0  0  0  0  0  0  0  0  0  0  0
    7.0197   -0.0234   65.0066 C   0  0  0  0  0  0  0  0  0  0  0  0
    8.2061    0.6048   65.7266 C   0  0  0  0  0  0  0  0  0  0  0  0
    7.0395   -1.5439   65.1237 C   0  0  0  0  0  0  0  0  0  0  0  0
    9.5292    0.0215   65.2558 C   0  0  0  0  0  0  0  0  0  0  0  0
    8.3639   -2.1697   64.6778 C   0  0  0  0  0  0  0  0  0  0  0  0
    9.7312   -1.9619   66.7910 C   0  0  0  0  0  0  0  0  0  0  0  0
    9.5336   -1.4863   65.3727 N   0  0  0  0  0  0  0  0  0  0  0  0
   10.4007   -1.8178   64.8568 H   0  0  0  0  0  0  0  0  0  0  0  0
  1  2  1  0  0  0
  1  3  2  0  0  0
  2  4  2  0  0  0
  3  8  1  0  0  0
  4 10  1  0  0  0
  5  6  2  0  0  0
  5 11  1  0  0  0
  6 12  1  0  0  0
  7  9  1  0  0  0
  7 12  2  0  0  0
  8 10  2  0  0  0
  8 13  1  0  0  0
  9 11  2  0  0  0
  9 13  1  0  0  0
 10 14  1  0  0  0
 11 14  1  0  0  0
 12 17  1  0  0  0
 20 21  1  0  0  0
 20 22  1  0  0  0
 21 23  1  0  0  0
 22 24  1  0  0  0
 23 26  1  0  0  0
 24 19  1  0  0  0
 24 26  1  0  0  0
 25 26  1  0  0  0
 15 17  1  0  0  0
 19 18  1  0  0  0
 18 13  1  0  0  0
 16 17  2  0  0  0
 26 27  1  0  0  0
M  CHG 1  26   1
M  END
> <minimizedAffinity>
-7.69051

> <CNNscore>
0.4009349644

> <CNNaffinity>
6.5014405251

> <CNN_VS>
2.6066548824

> <CNNaffinity_variance>
0.1773007810

$$$$



 27 30  0  0  0  0  0  0  0  0999 V2000
   14.0145   -0.8877   62.0581 C   0  0  0  0  0  0  0  0  0  0  0  0
   15.2774   -0.3763   62.3156 C   0  0  0  0  0  0  0  0  0  0  0  0
   13.4534   -0.7548   60.7851 C   0  0  0  0  0  0  0  0  0  0  0  0
   15.9789    0.2613   61.2979 C   0  0  0  0  0  0  0  0  0  0  0  0
   16.3405    0.9495   56.0920 C   0  0  0  0  0  0  0  0  0  0  0  0
   15.7952    0.6097   54.8584 C   0  0  0  0  0  0  0  0  0  0  0  0
   13.7876   -0.1198   55.9765 C   0  0  0  0  0  0  0  0  0  0  0  0
   14.1327   -0.1028   59.7327 C   0  0  0  0  0  0  0  0  0  0  0  0
   14.3058    0.2256   57.2439 C   0  0  0  0  0  0  0  0  0  0  0  0
   15.4211    0.3934   60.0138 C   0  0  0  0  0  0  0  0  0  0  0  0
   15.6112    0.7545   57.2783 C   0  0  0  0  0  0  0  0  0  0  0  0
   14.5186    0.0714   54.8009 C   0  0  0  0  0  0  0  0  0  0  0  0
   13.5688    0.0205   58.4377 N   0  0  0  0  0  0  0  0  0  0  0  0
   16.4020    1.2484   58.7967 S   0  0  0  0  0  0  0  0  0  0  0  0
   13.5835    1.2881   52.5655 C   0  0  0  0  0  0  0  0  0  0  0  0
   12.4403   -0.9384   53.5029 O   0  0  0  0  0  0  0  0  0  0  0  0
   13.8096   -0.3873   53.2185 S   0  0  0  0  0  0  0  0  0  0  0  0
   12.1148   -0.1469   58.3147 C   0  0  0  0  0  0  0  0  0  0  0  0
   11.3473    1.0846   58.7806 C   0  0  0  0  0  0  0  0  0  0  0  0
    8.6572    2.4465   59.8370 C   0  0  0  0  0  0  0  0  0  0  0  0
    9.2433    3.3725   60.8951 C   0  0  0  0  0  0  0  0  0  0  0  0
    9.1244    1.0084   60.0359 C   0  0  0  0  0  0  0  0  0  0  0  0
   10.7598    3.2770   60.9555 C   0  0  0  0  0  0  0  0  0  0  0  0
   10.6470    0.8715   60.1223 C   0  0  0  0  0  0  0  0  0  0  0  0
   11.0377    1.3656   62.5680 C   0  0  0  0  0  0  0  0  0  0  0  0
   11.2096    1.8460   61.1480 N   0  0  0  0  0  0  0  0  0  0  0  0
   12.2600    1.8452   60.9913 H   0  0  0  0  0  0  0  0  0  0  0  0
  1  2  1  0  0  0
  1  3  2  0  0  0
  2  4  2  0  0  0
  3  8  1  0  0  0
  4 10  1  0  0  0
  5  6  2  0  0  0
  5 11  1  0  0  0
  6 12  1  0  0  0
  7  9  1  0  0  0
  7 12  2  0  0  0
  8 10  2  0  0  0
  8 13  1  0  0  0
  9 11  2  0  0  0
  9 13  1  0  0  0
 10 14  1  0  0  0
 11 14  1  0  0  0
 12 17  1  0  0  0
 20 21  1  0  0  0
 20 22  1  0  0  0
 21 23  1  0  0  0
 22 24  1  0  0  0
 23 26  1  0  0  0
 24 19  1  0  0  0
 24 26  1  0  0  0
 25 26  1  0  0  0
 15 17  1  0  0  0
 19 18  1  0  0  0
 18 13  1  0  0  0
 16 17  2  0  0  0
 26 27  1  0  0  0
M  CHG 1  26   1
M  END
> <minimizedAffinity>
-7.70610

> <CNNscore>
0.3720189631

> <CNNaffinity>
6.7449250221

> <CNN_VS>
2.5092399120

> <CNNaffinity_variance>
0.0787917003

$$$$



 27 30  0  0  0  0  0  0  0  0999 V2000
   13.8665   -2.6681   54.9707 C   0  0  0  0  0  0  0  0  0  0  0  0
   14.7901   -1.7629   54.4704 C   0  0  0  0  0  0  0  0  0  0  0  0
   13.0748   -2.3229   56.0694 C   0  0  0  0  0  0  0  0  0  0  0  0
   14.9155   -0.5123   55.0658 C   0  0  0  0  0  0  0  0  0  0  0  0
   12.6013    3.0066   58.2231 C   0  0  0  0  0  0  0  0  0  0  0  0
   11.4753    3.2777   58.9931 C   0  0  0  0  0  0  0  0  0  0  0  0
   10.9368    0.9275   58.9851 C   0  0  0  0  0  0  0  0  0  0  0  0
   13.1848   -1.0668   56.7053 C   0  0  0  0  0  0  0  0  0  0  0  0
   12.0780    0.6156   58.2142 C   0  0  0  0  0  0  0  0  0  0  0  0
   14.1179   -0.1578   56.1684 C   0  0  0  0  0  0  0  0  0  0  0  0
   12.9015    1.6912   57.8270 C   0  0  0  0  0  0  0  0  0  0  0  0
   10.6402    2.2374   59.3718 C   0  0  0  0  0  0  0  0  0  0  0  0
   12.3724   -0.7117   57.8118 N   0  0  0  0  0  0  0  0  0  0  0  0
   14.3820    1.4617   56.8625 S   0  0  0  0  0  0  0  0  0  0  0  0
    9.8604    2.1217   61.9661 C   0  0  0  0  0  0  0  0  0  0  0  0
    8.1641    1.5225   59.9895 O   0  0  0  0  0  0  0  0  0  0  0  0
    9.1754    2.5745   60.3504 S   0  0  0  0  0  0  0  0  0  0  0  0
   11.7297   -1.8026   58.5562 C   0  0  0  0  0  0  0  0  0  0  0  0
   10.4740   -2.3175   57.8629 C   0  0  0  0  0  0  0  0  0  0  0  0
    8.7703   -2.1439   60.5600 C   0  0  0  0  0  0  0  0  0  0  0  0
    7.5032   -2.8551   60.1028 C   0  0  0  0  0  0  0  0  0  0  0  0
    9.1461   -1.0113   59.6102 C   0  0  0  0  0  0  0  0  0  0  0  0
    7.6114   -3.3392   58.6653 C   0  0  0  0  0  0  0  0  0  0  0  0
    9.2458   -1.4538   58.1477 C   0  0  0  0  0  0  0  0  0  0  0  0
    6.8300   -1.2916   57.4291 C   0  0  0  0  0  0  0  0  0  0  0  0
    7.9891   -2.2080   57.7352 N   0  0  0  0  0  0  0  0  0  0  0  0
    8.2248   -2.6605   56.8038 H   0  0  0  0  0  0  0  0  0  0  0  0
  1  2  1  0  0  0
  1  3  2  0  0  0
  2  4  2  0  0  0
  3  8  1  0  0  0
  4 10  1  0  0  0
  5  6  2  0  0  0
  5 11  1  0  0  0
  6 12  1  0  0  0
  7  9  1  0  0  0
  7 12  2  0  0  0
  8 10  2  0  0  0
  8 13  1  0  0  0
  9 11  2  0  0  0
  9 13  1  0  0  0
 10 14  1  0  0  0
 11 14  1  0  0  0
 12 17  1  0  0  0
 20 21  1  0  0  0
 20 22  1  0  0  0
 21 23  1  0  0  0
 22 24  1  0  0  0
 23 26  1  0  0  0
 24 19  1  0  0  0
 24 26  1  0  0  0
 25 26  1  0  0  0
 15 17  1  0  0  0
 19 18  1  0  0  0
 18 13  1  0  0  0
 16 17  2  0  0  0
 26 27  1  0  0  0
M  CHG 1  26   1
M  END
> <minimizedAffinity>
-0.16259

> <CNNscore>
0.3703006506

> <CNNaffinity>
6.3019323349

> <CNN_VS>
2.3336095810

> <CNNaffinity_variance>
0.1128775850

$$$$



 27 30  0  0  0  0  0  0  0  0999 V2000
    7.0757   -2.8713   58.1984 C   0  0  0  0  0  0  0  0  0  0  0  0
    8.0042   -2.0371   57.5945 C   0  0  0  0  0  0  0  0  0  0  0  0
    7.1482   -3.1186   59.5720 C   0  0  0  0  0  0  0  0  0  0  0  0
    8.9993   -1.4471   58.3666 C   0  0  0  0  0  0  0  0  0  0  0  0
   10.4767   -0.1874   63.2591 C   0  0  0  0  0  0  0  0  0  0  0  0
   10.1207   -0.2328   64.6028 C   0  0  0  0  0  0  0  0  0  0  0  0
    8.5123   -1.9546   64.0910 C   0  0  0  0  0  0  0  0  0  0  0  0
    8.1523   -2.5458   60.3831 C   0  0  0  0  0  0  0  0  0  0  0  0
    8.8581   -1.9432   62.7220 C   0  0  0  0  0  0  0  0  0  0  0  0
    9.0739   -1.6885   59.7499 C   0  0  0  0  0  0  0  0  0  0  0  0
    9.8498   -1.0263   62.3207 C   0  0  0  0  0  0  0  0  0  0  0  0
    9.1350   -1.1151   65.0187 C   0  0  0  0  0  0  0  0  0  0  0  0
    8.2180   -2.7864   61.7788 N   0  0  0  0  0  0  0  0  0  0  0  0
   10.4040   -0.8969   60.6323 S   0  0  0  0  0  0  0  0  0  0  0  0
    7.7320    0.3877   66.7865 C   0  0  0  0  0  0  0  0  0  0  0  0
    9.9068   -0.9654   67.5497 O   0  0  0  0  0  0  0  0  0  0  0  0
    8.6537   -1.1723   66.7457 S   0  0  0  0  0  0  0  0  0  0  0  0
    7.5081   -3.9635   62.2961 C   0  0  0  0  0  0  0  0  0  0  0  0
    6.1134   -3.6224   62.8068 C   0  0  0  0  0  0  0  0  0  0  0  0
    3.6477   -4.9379   61.2586 C   0  0  0  0  0  0  0  0  0  0  0  0
    2.5218   -4.5605   62.2128 C   0  0  0  0  0  0  0  0  0  0  0  0
    4.7840   -5.6445   61.9906 C   0  0  0  0  0  0  0  0  0  0  0  0
    3.0269   -3.7421   63.3908 C   0  0  0  0  0  0  0  0  0  0  0  0
    5.3080   -4.8612   63.1974 C   0  0  0  0  0  0  0  0  0  0  0  0
    3.6740   -5.5785   64.9845 C   0  0  0  0  0  0  0  0  0  0  0  0
    4.1559   -4.4515   64.1045 N   0  0  0  0  0  0  0  0  0  0  0  0
    4.5671   -3.7425   64.7799 H   0  0  0  0  0  0  0  0  0  0  0  0
  1  2  1  0  0  0
  1  3  2  0  0  0
  2  4  2  0  0  0
  3  8  1  0  0  0
  4 10  1  0  0  0
  5  6  2  0  0  0
  5 11  1  0  0  0
  6 12  1  0  0  0
  7  9  1  0  0  0
  7 12  2  0  0  0
  8 10  2  0  0  0
  8 13  1  0  0  0
  9 11  2  0  0  0
  9 13  1  0  0  0
 10 14  1  0  0  0
 11 14  1  0  0  0
 12 17  1  0  0  0
 20 21  1  0  0  0
 20 22  1  0  0  0
 21 23  1  0  0  0
 22 24  1  0  0  0
 23 26  1  0  0  0
 24 19  1  0  0  0
 24 26  1  0  0  0
 25 26  1  0  0  0
 15 17  1  0  0  0
 19 18  1  0  0  0
 18 13  1  0  0  0
 16 17  2  0  0  0
 26 27  1  0  0  0
M  CHG 1  26   1
M  END
> <minimizedAffinity>
-8.44360

> <CNNscore>
0.3629026711

> <CNNaffinity>
6.4223680496

> <CNN_VS>
2.3306944370

> <CNNaffinity_variance>
0.1903870106

$$$$



 22 24  0  0  0  0  0  0  0  0999 V2000
    3.8787   -4.7062   63.8716 C   0  0  0  0  0  0  0  0  0  0  0  0
    9.6749   -0.9692   60.8011 C   0  0  0  0  0  0  0  0  0  0  0  0
    3.3233   -4.2209   62.6940 C   0  0  0  0  0  0  0  0  0  0  0  0
    8.6700   -0.7738   59.8617 C   0  0  0  0  0  0  0  0  0  0  0  0
    5.2607   -4.8678   63.9742 C   0  0  0  0  0  0  0  0  0  0  0  0
    9.6146   -2.0609   61.6678 C   0  0  0  0  0  0  0  0  0  0  0  0
    4.1492   -3.9038   61.6166 C   0  0  0  0  0  0  0  0  0  0  0  0
    7.6084   -1.6739   59.7841 C   0  0  0  0  0  0  0  0  0  0  0  0
    6.1114   -4.5388   62.9036 C   0  0  0  0  0  0  0  0  0  0  0  0
    8.5436   -2.9710   61.6152 C   0  0  0  0  0  0  0  0  0  0  0  0
    5.5442   -4.0700   61.7031 C   0  0  0  0  0  0  0  0  0  0  0  0
    7.5390   -2.7843   60.6464 C   0  0  0  0  0  0  0  0  0  0  0  0
    7.5532   -4.7771   63.0911 C   0  0  0  0  0  0  0  0  0  0  0  0
    8.5836   -4.1130   62.5452 C   0  0  0  0  0  0  0  0  0  0  0  0
    6.3929   -3.7153   60.5432 C   0  0  0  0  0  0  0  0  0  0  0  0
    6.1580   -4.3204   59.3636 C   0  0  0  0  0  0  0  0  0  0  0  0
    6.9446   -4.0486   58.1198 C   0  0  0  0  0  0  0  0  0  0  0  0
    6.2413   -3.0760   57.1807 C   0  0  0  0  0  0  0  0  0  0  0  0
    8.3909   -2.0408   56.4667 C   0  0  0  0  0  0  0  0  0  0  0  0
    7.4283   -3.9340   55.1668 C   0  0  0  0  0  0  0  0  0  0  0  0
    7.1242   -2.7389   56.0365 N   0  0  0  0  0  0  0  0  0  0  0  0
    6.6181   -2.0678   55.4337 H   0  0  0  0  0  0  0  0  0  0  0  0
  1  3  1  0  0  0
  1  5  2  0  0  0
  2  4  1  0  0  0
  2  6  2  0  0  0
  3  7  2  0  0  0
  4  8  2  0  0  0
  5  9  1  0  0  0
  6 10  1  0  0  0
  7 11  1  0  0  0
  8 12  1  0  0  0
  9 11  2  0  0  0
  9 13  1  0  0  0
 10 12  2  0  0  0
 10 14  1  0  0  0
 11 15  1  0  0  0
 12 15  1  0  0  0
 13 14  2  0  0  0
 15 16  2  0  0  0
 16 17  1  0  0  0
 19 21  1  0  0  0
 20 21  1  0  0  0
 17 18  1  0  0  0
 18 21  1  0  0  0
 21 22  1  0  0  0
M  CHG 1  21   1
M  END
> <minimizedAffinity>
-2.95514

> <CNNscore>
0.4884549975

> <CNNaffinity>
4.9502477646

> <CNN_VS>
2.4179732800

> <CNNaffinity_variance>
0.0684854016

$$$$



 22 24  0  0  0  0  0  0  0  0999 V2000
   10.4491    2.7519   57.2376 C   0  0  0  0  0  0  0  0  0  0  0  0
   13.5300   -3.1037   53.6032 C   0  0  0  0  0  0  0  0  0  0  0  0
   10.7338    1.8776   58.2794 C   0  0  0  0  0  0  0  0  0  0  0  0
   13.5757   -3.5238   54.9269 C   0  0  0  0  0  0  0  0  0  0  0  0
   11.1535    2.6566   56.0371 C   0  0  0  0  0  0  0  0  0  0  0  0
   13.4679   -1.7418   53.3070 C   0  0  0  0  0  0  0  0  0  0  0  0
   11.7277    0.9126   58.1233 C   0  0  0  0  0  0  0  0  0  0  0  0
   13.5666   -2.5817   55.9543 C   0  0  0  0  0  0  0  0  0  0  0  0
   12.1489    1.6798   55.8552 C   0  0  0  0  0  0  0  0  0  0  0  0
   13.4420   -0.7771   54.3302 C   0  0  0  0  0  0  0  0  0  0  0  0
   12.4523    0.8108   56.9208 C   0  0  0  0  0  0  0  0  0  0  0  0
   13.5128   -1.2041   55.6700 C   0  0  0  0  0  0  0  0  0  0  0  0
   12.8645    1.6788   54.5673 C   0  0  0  0  0  0  0  0  0  0  0  0
   13.4124    0.6380   53.9212 C   0  0  0  0  0  0  0  0  0  0  0  0
   13.4951   -0.2311   56.7853 C   0  0  0  0  0  0  0  0  0  0  0  0
   14.5088   -0.2475   57.6712 C   0  0  0  0  0  0  0  0  0  0  0  0
   15.6219   -1.2475   57.6411 C   0  0  0  0  0  0  0  0  0  0  0  0
   16.4746   -1.2157   58.9038 C   0  0  0  0  0  0  0  0  0  0  0  0
   17.7195    0.5342   57.6428 C   0  0  0  0  0  0  0  0  0  0  0  0
   16.4357    1.1481   59.6862 C   0  0  0  0  0  0  0  0  0  0  0  0
   17.2199    0.0648   58.9871 N   0  0  0  0  0  0  0  0  0  0  0  0
   18.0624   -0.0968   59.5650 H   0  0  0  0  0  0  0  0  0  0  0  0
  1  3  1  0  0  0
  1  5  2  0  0  0
  2  4  1  0  0  0
  2  6  2  0  0  0
  3  7  2  0  0  0
  4  8  2  0  0  0
  5  9  1  0  0  0
  6 10  1  0  0  0
  7 11  1  0  0  0
  8 12  1  0  0  0
  9 11  2  0  0  0
  9 13  1  0  0  0
 10 12  2  0  0  0
 10 14  1  0  0  0
 11 15  1  0  0  0
 12 15  1  0  0  0
 13 14  2  0  0  0
 15 16  2  0  0  0
 16 17  1  0  0  0
 19 21  1  0  0  0
 20 21  1  0  0  0
 17 18  1  0  0  0
 18 21  1  0  0  0
 21 22  1  0  0  0
M  CHG 1  21   1
M  END
> <minimizedAffinity>
0.63070

> <CNNscore>
0.4677061439

> <CNNaffinity>
5.8984136581

> <CNN_VS>
2.7587242126

> <CNNaffinity_variance>
0.8774458170

$$$$



 22 24  0  0  0  0  0  0  0  0999 V2000
   13.3195    0.7136   52.5484 C   0  0  0  0  0  0  0  0  0  0  0  0
   15.4716    0.4173   59.7782 C   0  0  0  0  0  0  0  0  0  0  0  0
   14.2707    1.7244   52.6124 C   0  0  0  0  0  0  0  0  0  0  0  0
   16.2559    1.4511   59.2814 C   0  0  0  0  0  0  0  0  0  0  0  0
   13.3446   -0.3254   53.4793 C   0  0  0  0  0  0  0  0  0  0  0  0
   14.9613   -0.5482   58.9099 C   0  0  0  0  0  0  0  0  0  0  0  0
   15.2513    1.6926   53.6028 C   0  0  0  0  0  0  0  0  0  0  0  0
   16.5358    1.5155   57.9173 C   0  0  0  0  0  0  0  0  0  0  0  0
   14.3165   -0.3665   54.4950 C   0  0  0  0  0  0  0  0  0  0  0  0
   15.2197   -0.4912   57.5285 C   0  0  0  0  0  0  0  0  0  0  0  0
   15.2939    0.6459   54.5429 C   0  0  0  0  0  0  0  0  0  0  0  0
   16.0346    0.5436   57.0309 C   0  0  0  0  0  0  0  0  0  0  0  0
   14.2864   -1.5211   55.4098 C   0  0  0  0  0  0  0  0  0  0  0  0
   14.6691   -1.5740   56.6949 C   0  0  0  0  0  0  0  0  0  0  0  0
   16.3433    0.6474   55.5870 C   0  0  0  0  0  0  0  0  0  0  0  0
   17.6338    0.6700   55.2037 C   0  0  0  0  0  0  0  0  0  0  0  0
   18.7844    0.6741   56.1607 C   0  0  0  0  0  0  0  0  0  0  0  0
   19.6756   -0.5534   56.0132 C   0  0  0  0  0  0  0  0  0  0  0  0
   19.6192   -1.3221   58.3813 C   0  0  0  0  0  0  0  0  0  0  0  0
   21.6869   -1.6167   57.0255 C   0  0  0  0  0  0  0  0  0  0  0  0
   20.4585   -0.7709   57.2549 N   0  0  0  0  0  0  0  0  0  0  0  0
   20.8015    0.1500   57.5778 H   0  0  0  0  0  0  0  0  0  0  0  0
  1  3  1  0  0  0
  1  5  2  0  0  0
  2  4  1  0  0  0
  2  6  2  0  0  0
  3  7  2  0  0  0
  4  8  2  0  0  0
  5  9  1  0  0  0
  6 10  1  0  0  0
  7 11  1  0  0  0
  8 12  1  0  0  0
  9 11  2  0  0  0
  9 13  1  0  0  0
 10 12  2  0  0  0
 10 14  1  0  0  0
 11 15  1  0  0  0
 12 15  1  0  0  0
 13 14  2  0  0  0
 15 16  2  0  0  0
 16 17  1  0  0  0
 19 21  1  0  0  0
 20 21  1  0  0  0
 17 18  1  0  0  0
 18 21  1  0  0  0
 21 22  1  0  0  0
M  CHG 1  21   1
M  END
> <minimizedAffinity>
-8.22621

> <CNNscore>
0.4604213536

> <CNNaffinity>
6.2903409004

> <CNN_VS>
2.8962073326

> <CNNaffinity_variance>
0.1992965043

$$$$



 22 24  0  0  0  0  0  0  0  0999 V2000
   13.3231   -0.5866   53.4330 C   0  0  0  0  0  0  0  0  0  0  0  0
    9.8597    2.4214   59.4285 C   0  0  0  0  0  0  0  0  0  0  0  0
   14.3515    0.1245   54.0390 C   0  0  0  0  0  0  0  0  0  0  0  0
   11.1568    2.8992   59.5694 C   0  0  0  0  0  0  0  0  0  0  0  0
   12.2231   -0.9975   54.1865 C   0  0  0  0  0  0  0  0  0  0  0  0
    9.6216    1.2617   58.6902 C   0  0  0  0  0  0  0  0  0  0  0  0
   14.2836    0.4187   55.3999 C   0  0  0  0  0  0  0  0  0  0  0  0
   12.2167    2.2135   58.9781 C   0  0  0  0  0  0  0  0  0  0  0  0
   12.1293   -0.6969   55.5573 C   0  0  0  0  0  0  0  0  0  0  0  0
   10.6761    0.5649   58.0732 C   0  0  0  0  0  0  0  0  0  0  0  0
   13.1841    0.0028   56.1742 C   0  0  0  0  0  0  0  0  0  0  0  0
   11.9922    1.0376   58.2376 C   0  0  0  0  0  0  0  0  0  0  0  0
   10.9487   -1.2033   56.2787 C   0  0  0  0  0  0  0  0  0  0  0  0
   10.3331   -0.6688   57.3446 C   0  0  0  0  0  0  0  0  0  0  0  0
   13.1394    0.3395   57.6150 C   0  0  0  0  0  0  0  0  0  0  0  0
   14.1499   -0.0708   58.4045 C   0  0  0  0  0  0  0  0  0  0  0  0
   14.2208    0.2056   59.8737 C   0  0  0  0  0  0  0  0  0  0  0  0
   15.4781   -0.3649   60.5188 C   0  0  0  0  0  0  0  0  0  0  0  0
   17.5468   -0.6841   59.1695 C   0  0  0  0  0  0  0  0  0  0  0  0
   16.3563    1.5025   59.1252 C   0  0  0  0  0  0  0  0  0  0  0  0
   16.6858    0.2807   59.9472 N   0  0  0  0  0  0  0  0  0  0  0  0
   17.2686    0.6140   60.7342 H   0  0  0  0  0  0  0  0  0  0  0  0
  1  3  1  0  0  0
  1  5  2  0  0  0
  2  4  1  0  0  0
  2  6  2  0  0  0
  3  7  2  0  0  0
  4  8  2  0  0  0
  5  9  1  0  0  0
  6 10  1  0  0  0
  7 11  1  0  0  0
  8 12  1  0  0  0
  9 11  2  0  0  0
  9 13  1  0  0  0
 10 12  2  0  0  0
 10 14  1  0  0  0
 11 15  1  0  0  0
 12 15  1  0  0  0
 13 14  2  0  0  0
 15 16  2  0  0  0
 16 17  1  0  0  0
 19 21  1  0  0  0
 20 21  1  0  0  0
 17 18  1  0  0  0
 18 21  1  0  0  0
 21 22  1  0  0  0
M  CHG 1  21   1
M  END
> <minimizedAffinity>
-8.88528

> <CNNscore>
0.4523631334

> <CNNaffinity>
6.0365152359

> <CNN_VS>
2.7306969166

> <CNNaffinity_variance>
0.1085244194

$$$$



 22 24  0  0  0  0  0  0  0  0999 V2000
    9.2179    2.0005   58.3597 C   0  0  0  0  0  0  0  0  0  0  0  0
    9.1996   -1.4195   65.0896 C   0  0  0  0  0  0  0  0  0  0  0  0
   10.2187    2.6847   59.0385 C   0  0  0  0  0  0  0  0  0  0  0  0
   10.2018   -0.4700   65.2465 C   0  0  0  0  0  0  0  0  0  0  0  0
    8.8643    0.7107   58.7570 C   0  0  0  0  0  0  0  0  0  0  0  0
    8.8506   -1.8584   63.8121 C   0  0  0  0  0  0  0  0  0  0  0  0
   10.8708    2.0767   60.1102 C   0  0  0  0  0  0  0  0  0  0  0  0
   10.8600    0.0354   64.1264 C   0  0  0  0  0  0  0  0  0  0  0  0
    9.4999    0.0865   59.8453 C   0  0  0  0  0  0  0  0  0  0  0  0
    9.4924   -1.3488   62.6691 C   0  0  0  0  0  0  0  0  0  0  0  0
   10.5303    0.7727   60.5163 C   0  0  0  0  0  0  0  0  0  0  0  0
   10.5241   -0.4046   62.8321 C   0  0  0  0  0  0  0  0  0  0  0  0
    9.0853   -1.2898   60.1687 C   0  0  0  0  0  0  0  0  0  0  0  0
    9.0822   -1.8979   61.3649 C   0  0  0  0  0  0  0  0  0  0  0  0
   11.2366    0.1598   61.6639 C   0  0  0  0  0  0  0  0  0  0  0  0
   12.5770    0.0452   61.6092 C   0  0  0  0  0  0  0  0  0  0  0  0
   13.4044   -0.5547   62.7025 C   0  0  0  0  0  0  0  0  0  0  0  0
   14.8736   -0.6898   62.3206 C   0  0  0  0  0  0  0  0  0  0  0  0
   16.5302    0.7303   61.1203 C   0  0  0  0  0  0  0  0  0  0  0  0
   14.9471   -0.6957   59.8315 C   0  0  0  0  0  0  0  0  0  0  0  0
   15.1599    0.0989   61.0967 N   0  0  0  0  0  0  0  0  0  0  0  0
   14.4847    0.8816   61.0598 H   0  0  0  0  0  0  0  0  0  0  0  0
  1  3  1  0  0  0
  1  5  2  0  0  0
  2  4  1  0  0  0
  2  6  2  0  0  0
  3  7  2  0  0  0
  4  8  2  0  0  0
  5  9  1  0  0  0
  6 10  1  0  0  0
  7 11  1  0  0  0
  8 12  1  0  0  0
  9 11  2  0  0  0
  9 13  1  0  0  0
 10 12  2  0  0  0
 10 14  1  0  0  0
 11 15  1  0  0  0
 12 15  1  0  0  0
 13 14  2  0  0  0
 15 16  2  0  0  0
 16 17  1  0  0  0
 19 21  1  0  0  0
 20 21  1  0  0  0
 17 18  1  0  0  0
 18 21  1  0  0  0
 21 22  1  0  0  0
M  CHG 1  21   1
M  END
> <minimizedAffinity>
-5.12857

> <CNNscore>
0.4057255685

> <CNNaffinity>
6.1586632729

> <CNN_VS>
2.4987270832

> <CNNaffinity_variance>
0.5708252192

$$$$



 22 24  0  0  0  0  0  0  0  0999 V2000
    7.0453   -2.5061   58.4127 C   0  0  0  0  0  0  0  0  0  0  0  0
    9.1195   -0.4742   65.3811 C   0  0  0  0  0  0  0  0  0  0  0  0
    7.7250   -1.3167   58.1808 C   0  0  0  0  0  0  0  0  0  0  0  0
    9.6383    0.5576   64.6086 C   0  0  0  0  0  0  0  0  0  0  0  0
    7.3082   -3.2440   59.5673 C   0  0  0  0  0  0  0  0  0  0  0  0
    8.8664   -1.7179   64.8016 C   0  0  0  0  0  0  0  0  0  0  0  0
    8.6726   -0.8685   59.0997 C   0  0  0  0  0  0  0  0  0  0  0  0
    9.9107    0.3438   63.2583 C   0  0  0  0  0  0  0  0  0  0  0  0
    8.2494   -2.8004   60.5135 C   0  0  0  0  0  0  0  0  0  0  0  0
    9.1200   -1.9480   63.4375 C   0  0  0  0  0  0  0  0  0  0  0  0
    8.9542   -1.6071   60.2644 C   0  0  0  0  0  0  0  0  0  0  0  0
    9.6683   -0.9082   62.6624 C   0  0  0  0  0  0  0  0  0  0  0  0
    8.4867   -3.6638   61.6835 C   0  0  0  0  0  0  0  0  0  0  0  0
    8.8556   -3.3028   62.9222 C   0  0  0  0  0  0  0  0  0  0  0  0
    9.9601   -1.0981   61.2238 C   0  0  0  0  0  0  0  0  0  0  0  0
   11.2119   -0.8685   60.7842 C   0  0  0  0  0  0  0  0  0  0  0  0
   12.3163   -0.3550   61.6538 C   0  0  0  0  0  0  0  0  0  0  0  0
   13.6978   -0.7353   61.1348 C   0  0  0  0  0  0  0  0  0  0  0  0
   15.8788    0.3003   60.5242 C   0  0  0  0  0  0  0  0  0  0  0  0
   13.8309    0.8488   59.2182 C   0  0  0  0  0  0  0  0  0  0  0  0
   14.3785    0.4554   60.5682 N   0  0  0  0  0  0  0  0  0  0  0  0
   14.1917    1.2553   61.1968 H   0  0  0  0  0  0  0  0  0  0  0  0
  1  3  1  0  0  0
  1  5  2  0  0  0
  2  4  1  0  0  0
  2  6  2  0  0  0
  3  7  2  0  0  0
  4  8  2  0  0  0
  5  9  1  0  0  0
  6 10  1  0  0  0
  7 11  1  0  0  0
  8 12  1  0  0  0
  9 11  2  0  0  0
  9 13  1  0  0  0
 10 12  2  0  0  0
 10 14  1  0  0  0
 11 15  1  0  0  0
 12 15  1  0  0  0
 13 14  2  0  0  0
 15 16  2  0  0  0
 16 17  1  0  0  0
 19 21  1  0  0  0
 20 21  1  0  0  0
 17 18  1  0  0  0
 18 21  1  0  0  0
 21 22  1  0  0  0
M  CHG 1  21   1
M  END
> <minimizedAffinity>
-8.94650

> <CNNscore>
0.3985533714

> <CNNaffinity>
5.7874345779

> <CNN_VS>
2.3066015244

> <CNNaffinity_variance>
0.0961795002

$$$$



 22 24  0  0  0  0  0  0  0  0999 V2000
   16.0982   -0.5610   54.3452 C   0  0  0  0  0  0  0  0  0  0  0  0
   10.5051    2.2193   58.5851 C   0  0  0  0  0  0  0  0  0  0  0  0
   16.7915    0.1727   55.3000 C   0  0  0  0  0  0  0  0  0  0  0  0
   11.6323    2.7374   59.2109 C   0  0  0  0  0  0  0  0  0  0  0  0
   14.8108   -1.0221   54.6219 C   0  0  0  0  0  0  0  0  0  0  0  0
   10.6095    1.0662   57.8067 C   0  0  0  0  0  0  0  0  0  0  0  0
   16.2003    0.4394   56.5340 C   0  0  0  0  0  0  0  0  0  0  0  0
   12.8625    2.0984   59.0644 C   0  0  0  0  0  0  0  0  0  0  0  0
   14.1917   -0.7500   55.8551 C   0  0  0  0  0  0  0  0  0  0  0  0
   11.8448    0.4163   57.6343 C   0  0  0  0  0  0  0  0  0  0  0  0
   14.9057   -0.0270   56.8299 C   0  0  0  0  0  0  0  0  0  0  0  0
   12.9808    0.9295   58.2891 C   0  0  0  0  0  0  0  0  0  0  0  0
   12.8456   -1.3086   56.0710 C   0  0  0  0  0  0  0  0  0  0  0  0
   11.8514   -0.8146   56.8248 C   0  0  0  0  0  0  0  0  0  0  0  0
   14.3041    0.2815   58.1468 C   0  0  0  0  0  0  0  0  0  0  0  0
   14.9534   -0.1093   59.2597 C   0  0  0  0  0  0  0  0  0  0  0  0
   14.4502    0.1423   60.6464 C   0  0  0  0  0  0  0  0  0  0  0  0
   13.4287   -0.8946   61.0979 C   0  0  0  0  0  0  0  0  0  0  0  0
   10.9498   -1.0751   60.9409 C   0  0  0  0  0  0  0  0  0  0  0  0
   11.9903    0.1714   62.8287 C   0  0  0  0  0  0  0  0  0  0  0  0
   12.1271   -0.2416   61.3838 N   0  0  0  0  0  0  0  0  0  0  0  0
   12.0835    0.6318   60.8312 H   0  0  0  0  0  0  0  0  0  0  0  0
  1  3  1  0  0  0
  1  5  2  0  0  0
  2  4  1  0  0  0
  2  6  2  0  0  0
  3  7  2  0  0  0
  4  8  2  0  0  0
  5  9  1  0  0  0
  6 10  1  0  0  0
  7 11  1  0  0  0
  8 12  1  0  0  0
  9 11  2  0  0  0
  9 13  1  0  0  0
 10 12  2  0  0  0
 10 14  1  0  0  0
 11 15  1  0  0  0
 12 15  1  0  0  0
 13 14  2  0  0  0
 15 16  2  0  0  0
 16 17  1  0  0  0
 19 21  1  0  0  0
 20 21  1  0  0  0
 17 18  1  0  0  0
 18 21  1  0  0  0
 21 22  1  0  0  0
M  CHG 1  21   1
M  END
> <minimizedAffinity>
-8.43898

> <CNNscore>
0.3664705157

> <CNNaffinity>
5.8379716873

> <CNN_VS>
2.1394445896

> <CNNaffinity_variance>
0.1853409111

$$$$



 22 24  0  0  0  0  0  0  0  0999 V2000
   11.4797    1.2112   60.6317 C   0  0  0  0  0  0  0  0  0  0  0  0
    8.8709   -1.3345   67.2425 C   0  0  0  0  0  0  0  0  0  0  0  0
   11.7654   -0.1464   60.5560 C   0  0  0  0  0  0  0  0  0  0  0  0
    9.3590   -2.4947   66.6540 C   0  0  0  0  0  0  0  0  0  0  0  0
   10.4674    1.6630   61.4789 C   0  0  0  0  0  0  0  0  0  0  0  0
    8.5076   -0.2492   66.4446 C   0  0  0  0  0  0  0  0  0  0  0  0
   11.0344   -1.0531   61.3221 C   0  0  0  0  0  0  0  0  0  0  0  0
    9.4772   -2.5723   65.2672 C   0  0  0  0  0  0  0  0  0  0  0  0
    9.7294    0.7653   62.2711 C   0  0  0  0  0  0  0  0  0  0  0  0
    8.6344   -0.3029   65.0449 C   0  0  0  0  0  0  0  0  0  0  0  0
   10.0046   -0.6122   62.1745 C   0  0  0  0  0  0  0  0  0  0  0  0
    9.1065   -1.4882   64.4494 C   0  0  0  0  0  0  0  0  0  0  0  0
    8.6561    1.3303   63.1075 C   0  0  0  0  0  0  0  0  0  0  0  0
    8.1921    0.8778   64.2826 C   0  0  0  0  0  0  0  0  0  0  0  0
    9.2537   -1.6008   62.9808 C   0  0  0  0  0  0  0  0  0  0  0  0
    8.6176   -2.6022   62.3441 C   0  0  0  0  0  0  0  0  0  0  0  0
    7.8267   -3.6620   63.0450 C   0  0  0  0  0  0  0  0  0  0  0  0
    6.3239   -3.4966   62.8536 C   0  0  0  0  0  0  0  0  0  0  0  0
    5.3961   -2.0065   64.6202 C   0  0  0  0  0  0  0  0  0  0  0  0
    4.3750   -4.2408   64.2133 C   0  0  0  0  0  0  0  0  0  0  0  0
    5.6441   -3.4255   64.1708 N   0  0  0  0  0  0  0  0  0  0  0  0
    6.2758   -3.8426   64.8756 H   0  0  0  0  0  0  0  0  0  0  0  0
  1  3  1  0  0  0
  1  5  2  0  0  0
  2  4  1  0  0  0
  2  6  2  0  0  0
  3  7  2  0  0  0
  4  8  2  0  0  0
  5  9  1  0  0  0
  6 10  1  0  0  0
  7 11  1  0  0  0
  8 12  1  0  0  0
  9 11  2  0  0  0
  9 13  1  0  0  0
 10 12  2  0  0  0
 10 14  1  0  0  0
 11 15  1  0  0  0
 12 15  1  0  0  0
 13 14  2  0  0  0
 15 16  2  0  0  0
 16 17  1  0  0  0
 19 21  1  0  0  0
 20 21  1  0  0  0
 17 18  1  0  0  0
 18 21  1  0  0  0
 21 22  1  0  0  0
M  CHG 1  21   1
M  END
> <minimizedAffinity>
-7.93902

> <CNNscore>
0.3497716486

> <CNNaffinity>
5.7064762115

> <CNN_VS>
1.9959635735

> <CNNaffinity_variance>
0.1545601338

$$$$



 22 24  0  0  0  0  0  0  0  0999 V2000
    7.0147   -2.4971   57.9160 C   0  0  0  0  0  0  0  0  0  0  0  0
    7.2395   -1.0644   65.3245 C   0  0  0  0  0  0  0  0  0  0  0  0
    7.7675   -1.3302   57.9659 C   0  0  0  0  0  0  0  0  0  0  0  0
    7.9748   -0.0087   64.7997 C   0  0  0  0  0  0  0  0  0  0  0  0
    6.9413   -3.3261   59.0358 C   0  0  0  0  0  0  0  0  0  0  0  0
    7.1103   -2.2501   64.6007 C   0  0  0  0  0  0  0  0  0  0  0  0
    8.4526   -0.9959   59.1331 C   0  0  0  0  0  0  0  0  0  0  0  0
    8.5869   -0.1411   63.5543 C   0  0  0  0  0  0  0  0  0  0  0  0
    7.6128   -2.9979   60.2272 C   0  0  0  0  0  0  0  0  0  0  0  0
    7.7074   -2.3970   63.3358 C   0  0  0  0  0  0  0  0  0  0  0  0
    8.3945   -1.8274   60.2673 C   0  0  0  0  0  0  0  0  0  0  0  0
    8.4721   -1.3346   62.8169 C   0  0  0  0  0  0  0  0  0  0  0  0
    7.5069   -3.9518   61.3450 C   0  0  0  0  0  0  0  0  0  0  0  0
    7.5470   -3.6973   62.6620 C   0  0  0  0  0  0  0  0  0  0  0  0
    9.1269   -1.4382   61.4935 C   0  0  0  0  0  0  0  0  0  0  0  0
   10.4567   -1.2421   61.4152 C   0  0  0  0  0  0  0  0  0  0  0  0
   11.3080   -0.8471   62.5810 C   0  0  0  0  0  0  0  0  0  0  0  0
   12.2847    0.2727   62.2426 C   0  0  0  0  0  0  0  0  0  0  0  0
   10.7662    2.2391   62.0709 C   0  0  0  0  0  0  0  0  0  0  0  0
   11.4298    1.3699   64.3080 C   0  0  0  0  0  0  0  0  0  0  0  0
   11.8433    1.5443   62.8672 N   0  0  0  0  0  0  0  0  0  0  0  0
   12.6522    2.1889   62.8778 H   0  0  0  0  0  0  0  0  0  0  0  0
  1  3  1  0  0  0
  1  5  2  0  0  0
  2  4  1  0  0  0
  2  6  2  0  0  0
  3  7  2  0  0  0
  4  8  2  0  0  0
  5  9  1  0  0  0
  6 10  1  0  0  0
  7 11  1  0  0  0
  8 12  1  0  0  0
  9 11  2  0  0  0
  9 13  1  0  0  0
 10 12  2  0  0  0
 10 14  1  0  0  0
 11 15  1  0  0  0
 12 15  1  0  0  0
 13 14  2  0  0  0
 15 16  2  0  0  0
 16 17  1  0  0  0
 19 21  1  0  0  0
 20 21  1  0  0  0
 17 18  1  0  0  0
 18 21  1  0  0  0
 21 22  1  0  0  0
M  CHG 1  21   1
M  END
> <minimizedAffinity>
-7.14711

> <CNNscore>
0.3496690094

> <CNNaffinity>
5.6274309158

> <CNN_VS>
1.9677381516

> <CNNaffinity_variance>
0.0746320337

$$$$



 36 40  0  0  0  0  0  0  0  0999 V2000
    9.4063   -2.5827   61.4623 C   0  0  0  0  0  0  0  0  0  0  0  0
    8.4100   -3.5577   61.4822 C   0  0  0  0  0  0  0  0  0  0  0  0
    7.4439   -2.5117   63.4240 C   0  0  0  0  0  0  0  0  0  0  0  0
    9.4385   -1.5550   62.4232 C   0  0  0  0  0  0  0  0  0  0  0  0
    8.4423   -1.5197   63.4193 C   0  0  0  0  0  0  0  0  0  0  0  0
    7.4291   -3.5220   62.4626 C   0  0  0  0  0  0  0  0  0  0  0  0
   10.4773    0.4376   63.3457 C   0  0  0  0  0  0  0  0  0  0  0  0
   10.4891   -0.5192   62.4090 C   0  0  0  0  0  0  0  0  0  0  0  0
    9.4482    0.5094   64.4100 C   0  0  0  0  0  0  0  0  0  0  0  0
    8.4654   -0.4788   64.4044 N   0  0  0  0  0  0  0  0  0  0  0  0
    9.5246    1.4293   65.2253 O   0  0  0  0  0  0  0  0  0  0  0  0
    6.4695   -4.4557   62.4866 F   0  0  0  0  0  0  0  0  0  0  0  0
   11.5587   -0.5401   61.3545 C   0  0  0  0  0  0  0  0  0  0  0  0
   12.9086   -0.2031   61.9534 C   0  0  0  0  0  0  0  0  0  0  0  0
   14.3198    0.4544   58.4630 C   0  0  0  0  0  0  0  0  0  0  0  0
   16.1781    0.5446   60.1165 C   0  0  0  0  0  0  0  0  0  0  0  0
   13.4194   -0.1835   59.5123 C   0  0  0  0  0  0  0  0  0  0  0  0
   15.2715   -0.0891   61.1641 C   0  0  0  0  0  0  0  0  0  0  0  0
   15.7332    0.1916   58.7646 N   0  0  0  0  0  0  0  0  0  0  0  0
   13.8400    0.2879   60.8811 N   0  0  0  0  0  0  0  0  0  0  0  0
   13.7851    1.3172   60.8844 H   0  0  0  0  0  0  0  0  0  0  0  0
   18.4179    0.3714   55.5575 C   0  0  0  0  0  0  0  0  0  0  0  0
   18.4929   -1.0853   58.9165 C   0  0  0  0  0  0  0  0  0  0  0  0
   17.1528    0.9320   55.5454 C   0  0  0  0  0  0  0  0  0  0  0  0
   19.7653   -1.5272   58.6415 C   0  0  0  0  0  0  0  0  0  0  0  0
   17.9037   -0.3639   57.8248 C   0  0  0  0  0  0  0  0  0  0  0  0
   18.7796   -0.2880   56.7383 C   0  0  0  0  0  0  0  0  0  0  0  0
   16.6432    0.2417   57.7023 C   0  0  0  0  0  0  0  0  0  0  0  0
   16.2784    0.8822   56.5691 N   0  0  0  0  0  0  0  0  0  0  0  0
   20.2704   -1.0851   57.0746 S   0  0  0  0  0  0  0  0  0  0  0  0
    7.4306   -0.4479   65.4348 C   0  0  0  0  0  0  0  0  0  0  0  0
    8.0621   -0.6191   66.7971 C   0  0  0  0  0  0  0  0  0  0  0  0
    8.0304    0.5422   67.5388 N   0  0  0  0  0  0  0  0  0  0  0  0
    8.5115   -1.6827   67.2154 O   0  0  0  0  0  0  0  0  0  0  0  0
    7.6163    1.3891   67.1639 H   0  0  0  0  0  0  0  0  0  0  0  0
    8.4125    0.5986   68.4775 H   0  0  0  0  0  0  0  0  0  0  0  0
  1  2  2  0  0  0
  1  4  1  0  0  0
  2  6  1  0  0  0
 22 24  1  0  0  0
 22 27  2  0  0  0
 23 25  2  0  0  0
 23 26  1  0  0  0
  3  5  1  0  0  0
  3  6  2  0  0  0
 24 29  2  0  0  0
 25 30  1  0  0  0
 26 27  1  0  0  0
 26 28  2  0  0  0
  4  5  2  0  0  0
  4  8  1  0  0  0
  5 10  1  0  0  0
  6 12  1  0  0  0
 27 30  1  0  0  0
 28 29  1  0  0  0
 28 19  1  0  0  0
  7  8  2  0  0  0
  7  9  1  0  0  0
  8 13  1  0  0  0
  9 10  1  0  0  0
  9 11  2  0  0  0
 32 31  1  0  0  0
 32 33  1  0  0  0
 32 34  2  0  0  0
 15 17  1  0  0  0
 15 19  1  0  0  0
 16 18  1  0  0  0
 16 19  1  0  0  0
 17 20  1  0  0  0
 18 20  1  0  0  0
 13 14  1  0  0  0
 31 10  1  0  0  0
 14 20  1  0  0  0
 33 35  1  0  0  0
 33 36  1  0  0  0
 20 21  1  0  0  0
M  CHG 1  20   1
M  END
> <minimizedAffinity>
-10.88898

> <CNNscore>
0.7373591661

> <CNNaffinity>
7.4414329529

> <CNN_VS>
5.4870085716

> <CNNaffinity_variance>
0.0426553562

$$$$



 36 40  0  0  0  0  0  0  0  0999 V2000
    9.5180    0.6288   64.1958 C   0  0  0  0  0  0  0  0  0  0  0  0
    8.8546    0.7931   65.4110 C   0  0  0  0  0  0  0  0  0  0  0  0
    7.8177   -1.3606   65.1208 C   0  0  0  0  0  0  0  0  0  0  0  0
    9.3426   -0.5334   63.4219 C   0  0  0  0  0  0  0  0  0  0  0  0
    8.4789   -1.5430   63.8916 C   0  0  0  0  0  0  0  0  0  0  0  0
    8.0051   -0.2014   65.8733 C   0  0  0  0  0  0  0  0  0  0  0  0
    9.8405   -1.8387   61.4347 C   0  0  0  0  0  0  0  0  0  0  0  0
   10.0411   -0.7152   62.1350 C   0  0  0  0  0  0  0  0  0  0  0  0
    8.9402   -2.9232   61.8934 C   0  0  0  0  0  0  0  0  0  0  0  0
    8.2909   -2.7307   63.1115 N   0  0  0  0  0  0  0  0  0  0  0  0
    8.8233   -3.9178   61.1766 O   0  0  0  0  0  0  0  0  0  0  0  0
    7.3654   -0.0493   67.0399 F   0  0  0  0  0  0  0  0  0  0  0  0
   10.9662    0.3497   61.6188 C   0  0  0  0  0  0  0  0  0  0  0  0
   12.3971    0.0580   62.0214 C   0  0  0  0  0  0  0  0  0  0  0  0
   15.4585   -0.7550   59.8827 C   0  0  0  0  0  0  0  0  0  0  0  0
   13.6992    0.2408   58.4306 C   0  0  0  0  0  0  0  0  0  0  0  0
   14.6944   -0.2988   61.1183 C   0  0  0  0  0  0  0  0  0  0  0  0
   12.9361    0.6905   59.6701 C   0  0  0  0  0  0  0  0  0  0  0  0
   15.1272    0.0898   58.7277 N   0  0  0  0  0  0  0  0  0  0  0  0
   13.2202   -0.2596   60.8049 N   0  0  0  0  0  0  0  0  0  0  0  0
   12.9447   -1.2032   60.4944 H   0  0  0  0  0  0  0  0  0  0  0  0
   17.8816    0.3293   55.5843 C   0  0  0  0  0  0  0  0  0  0  0  0
   17.9753   -0.9470   59.0155 C   0  0  0  0  0  0  0  0  0  0  0  0
   16.5763    0.7828   55.5111 C   0  0  0  0  0  0  0  0  0  0  0  0
   19.2868   -1.2961   58.7960 C   0  0  0  0  0  0  0  0  0  0  0  0
   17.3621   -0.3318   57.8732 C   0  0  0  0  0  0  0  0  0  0  0  0
   18.2606   -0.2384   56.8066 C   0  0  0  0  0  0  0  0  0  0  0  0
   16.0610    0.1615   57.6875 C   0  0  0  0  0  0  0  0  0  0  0  0
   15.6791    0.7125   56.5137 N   0  0  0  0  0  0  0  0  0  0  0  0
   19.8003   -0.8927   57.2214 S   0  0  0  0  0  0  0  0  0  0  0  0
    7.3938   -3.7732   63.6033 C   0  0  0  0  0  0  0  0  0  0  0  0
    6.0107   -3.5681   63.0296 C   0  0  0  0  0  0  0  0  0  0  0  0
    5.7974   -4.3210   61.8950 N   0  0  0  0  0  0  0  0  0  0  0  0
    5.1567   -2.8486   63.5404 O   0  0  0  0  0  0  0  0  0  0  0  0
    6.5222   -4.9293   61.5290 H   0  0  0  0  0  0  0  0  0  0  0  0
    4.9195   -4.3005   61.3858 H   0  0  0  0  0  0  0  0  0  0  0  0
  1  2  2  0  0  0
  1  4  1  0  0  0
  2  6  1  0  0  0
 22 24  1  0  0  0
 22 27  2  0  0  0
 23 25  2  0  0  0
 23 26  1  0  0  0
  3  5  1  0  0  0
  3  6  2  0  0  0
 24 29  2  0  0  0
 25 30  1  0  0  0
 26 27  1  0  0  0
 26 28  2  0  0  0
  4  5  2  0  0  0
  4  8  1  0  0  0
  5 10  1  0  0  0
  6 12  1  0  0  0
 27 30  1  0  0  0
 28 29  1  0  0  0
 28 19  1  0  0  0
  7  8  2  0  0  0
  7  9  1  0  0  0
  8 13  1  0  0  0
  9 10  1  0  0  0
  9 11  2  0  0  0
 32 31  1  0  0  0
 32 33  1  0  0  0
 32 34  2  0  0  0
 15 17  1  0  0  0
 15 19  1  0  0  0
 16 18  1  0  0  0
 16 19  1  0  0  0
 17 20  1  0  0  0
 18 20  1  0  0  0
 13 14  1  0  0  0
 31 10  1  0  0  0
 14 20  1  0  0  0
 33 35  1  0  0  0
 33 36  1  0  0  0
 20 21  1  0  0  0
M  CHG 1  20   1
M  END
> <minimizedAffinity>
-10.07641

> <CNNscore>
0.6437821388

> <CNNaffinity>
7.2607049942

> <CNN_VS>
4.6743121147

> <CNNaffinity_variance>
0.0851786286

$$$$



 36 40  0  0  0  0  0  0  0  0999 V2000
    9.3006    0.6587   64.2621 C   0  0  0  0  0  0  0  0  0  0  0  0
    8.5764    0.8559   65.4370 C   0  0  0  0  0  0  0  0  0  0  0  0
    7.5735   -1.3166   65.1676 C   0  0  0  0  0  0  0  0  0  0  0  0
    9.1736   -0.5300   63.5194 C   0  0  0  0  0  0  0  0  0  0  0  0
    8.2962   -1.5323   63.9792 C   0  0  0  0  0  0  0  0  0  0  0  0
    7.7135   -0.1315   65.8896 C   0  0  0  0  0  0  0  0  0  0  0  0
    9.7803   -1.8943   61.6035 C   0  0  0  0  0  0  0  0  0  0  0  0
    9.9365   -0.7466   62.2753 C   0  0  0  0  0  0  0  0  0  0  0  0
    8.8677   -2.9723   62.0530 C   0  0  0  0  0  0  0  0  0  0  0  0
    8.1572   -2.7467   63.2306 N   0  0  0  0  0  0  0  0  0  0  0  0
    8.7948   -3.9909   61.3647 O   0  0  0  0  0  0  0  0  0  0  0  0
    7.0155    0.0521   67.0176 F   0  0  0  0  0  0  0  0  0  0  0  0
   10.8770    0.3101   61.7701 C   0  0  0  0  0  0  0  0  0  0  0  0
   12.2839    0.0603   62.2730 C   0  0  0  0  0  0  0  0  0  0  0  0
   13.6709    1.3188   58.9414 C   0  0  0  0  0  0  0  0  0  0  0  0
   15.4291   -0.0094   60.0991 C   0  0  0  0  0  0  0  0  0  0  0  0
   12.6272    0.7774   59.9090 C   0  0  0  0  0  0  0  0  0  0  0  0
   14.3818   -0.5440   61.0677 C   0  0  0  0  0  0  0  0  0  0  0  0
   14.8068    0.3937   58.8340 N   0  0  0  0  0  0  0  0  0  0  0  0
   13.2847    0.4760   61.2318 N   0  0  0  0  0  0  0  0  0  0  0  0
   13.7209    1.3480   61.5664 H   0  0  0  0  0  0  0  0  0  0  0  0
   17.1623    0.5954   55.3791 C   0  0  0  0  0  0  0  0  0  0  0  0
   13.9891   -1.0077   56.2577 C   0  0  0  0  0  0  0  0  0  0  0  0
   17.4828    1.2112   56.5761 C   0  0  0  0  0  0  0  0  0  0  0  0
   13.9368   -1.4931   54.9726 C   0  0  0  0  0  0  0  0  0  0  0  0
   15.1584   -0.2143   56.5081 C   0  0  0  0  0  0  0  0  0  0  0  0
   15.9649   -0.1298   55.3697 C   0  0  0  0  0  0  0  0  0  0  0  0
   15.5817    0.4507   57.6698 C   0  0  0  0  0  0  0  0  0  0  0  0
   16.7350    1.1552   57.6955 N   0  0  0  0  0  0  0  0  0  0  0  0
   15.2848   -1.0056   54.0501 S   0  0  0  0  0  0  0  0  0  0  0  0
    7.2457   -3.7816   63.7119 C   0  0  0  0  0  0  0  0  0  0  0  0
    5.8948   -3.6172   63.0544 C   0  0  0  0  0  0  0  0  0  0  0  0
    5.7733   -4.3764   61.9105 N   0  0  0  0  0  0  0  0  0  0  0  0
    4.9905   -2.9228   63.5106 O   0  0  0  0  0  0  0  0  0  0  0  0
    6.5365   -4.9635   61.5908 H   0  0  0  0  0  0  0  0  0  0  0  0
    4.9278   -4.3818   61.3487 H   0  0  0  0  0  0  0  0  0  0  0  0
  1  2  2  0  0  0
  1  4  1  0  0  0
  2  6  1  0  0  0
 22 24  1  0  0  0
 22 27  2  0  0  0
 23 25  2  0  0  0
 23 26  1  0  0  0
  3  5  1  0  0  0
  3  6  2  0  0  0
 24 29  2  0  0  0
 25 30  1  0  0  0
 26 27  1  0  0  0
 26 28  2  0  0  0
  4  5  2  0  0  0
  4  8  1  0  0  0
  5 10  1  0  0  0
  6 12  1  0  0  0
 27 30  1  0  0  0
 28 29  1  0  0  0
 28 19  1  0  0  0
  7  8  2  0  0  0
  7  9  1  0  0  0
  8 13  1  0  0  0
  9 10  1  0  0  0
  9 11  2  0  0  0
 32 31  1  0  0  0
 32 33  1  0  0  0
 32 34  2  0  0  0
 15 17  1  0  0  0
 15 19  1  0  0  0
 16 18  1  0  0  0
 16 19  1  0  0  0
 17 20  1  0  0  0
 18 20  1  0  0  0
 13 14  1  0  0  0
 31 10  1  0  0  0
 14 20  1  0  0  0
 33 35  1  0  0  0
 33 36  1  0  0  0
 20 21  1  0  0  0
M  CHG 1  20   1
M  END
> <minimizedAffinity>
-10.07932

> <CNNscore>
0.6403993368

> <CNNaffinity>
7.2424278259

> <CNN_VS>
4.6380457878

> <CNNaffinity_variance>
0.0670947954

$$$$



 36 40  0  0  0  0  0  0  0  0999 V2000
    9.1338   -2.7748   61.4462 C   0  0  0  0  0  0  0  0  0  0  0  0
    8.1521   -3.7530   61.2944 C   0  0  0  0  0  0  0  0  0  0  0  0
    7.0388   -2.9218   63.2611 C   0  0  0  0  0  0  0  0  0  0  0  0
    9.0849   -1.8530   62.5085 C   0  0  0  0  0  0  0  0  0  0  0  0
    8.0214   -1.9283   63.4299 C   0  0  0  0  0  0  0  0  0  0  0  0
    7.1049   -3.8262   62.2014 C   0  0  0  0  0  0  0  0  0  0  0  0
   10.0295    0.0390   63.7038 C   0  0  0  0  0  0  0  0  0  0  0  0
   10.1197   -0.8146   62.6760 C   0  0  0  0  0  0  0  0  0  0  0  0
    8.9279   -0.0074   64.6944 C   0  0  0  0  0  0  0  0  0  0  0  0
    7.9616   -0.9959   64.5169 N   0  0  0  0  0  0  0  0  0  0  0  0
    8.9347    0.8227   65.6041 O   0  0  0  0  0  0  0  0  0  0  0  0
    6.1589   -4.7635   62.0605 F   0  0  0  0  0  0  0  0  0  0  0  0
   11.2602   -0.7185   61.7033 C   0  0  0  0  0  0  0  0  0  0  0  0
   12.4392   -0.0018   62.3287 C   0  0  0  0  0  0  0  0  0  0  0  0
   13.7013    1.2720   58.9536 C   0  0  0  0  0  0  0  0  0  0  0  0
   15.5343    0.0232   60.0832 C   0  0  0  0  0  0  0  0  0  0  0  0
   12.7011    0.7022   59.9505 C   0  0  0  0  0  0  0  0  0  0  0  0
   14.5304   -0.5400   61.0811 C   0  0  0  0  0  0  0  0  0  0  0  0
   14.8685    0.3890   58.8290 N   0  0  0  0  0  0  0  0  0  0  0  0
   13.3995    0.4399   61.2606 N   0  0  0  0  0  0  0  0  0  0  0  0
   13.8100    1.3312   61.5763 H   0  0  0  0  0  0  0  0  0  0  0  0
   17.1365    0.6397   55.3192 C   0  0  0  0  0  0  0  0  0  0  0  0
   13.9849   -0.9741   56.2540 C   0  0  0  0  0  0  0  0  0  0  0  0
   17.4876    1.2376   56.5166 C   0  0  0  0  0  0  0  0  0  0  0  0
   13.8997   -1.4406   54.9636 C   0  0  0  0  0  0  0  0  0  0  0  0
   15.1608   -0.1852   56.4864 C   0  0  0  0  0  0  0  0  0  0  0  0
   15.9385   -0.0846   55.3293 C   0  0  0  0  0  0  0  0  0  0  0  0
   15.6139    0.4625   57.6466 C   0  0  0  0  0  0  0  0  0  0  0  0
   16.7682    1.1658   57.6536 N   0  0  0  0  0  0  0  0  0  0  0  0
   15.2245   -0.9406   54.0146 S   0  0  0  0  0  0  0  0  0  0  0  0
    6.8572   -1.0795   65.4691 C   0  0  0  0  0  0  0  0  0  0  0  0
    5.6900   -0.2595   64.9697 C   0  0  0  0  0  0  0  0  0  0  0  0
    4.6095   -1.0424   64.6244 N   0  0  0  0  0  0  0  0  0  0  0  0
    5.6861    0.9675   64.9198 O   0  0  0  0  0  0  0  0  0  0  0  0
    4.6468   -2.0521   64.7160 H   0  0  0  0  0  0  0  0  0  0  0  0
    3.7434   -0.6484   64.2709 H   0  0  0  0  0  0  0  0  0  0  0  0
  1  2  2  0  0  0
  1  4  1  0  0  0
  2  6  1  0  0  0
 22 24  1  0  0  0
 22 27  2  0  0  0
 23 25  2  0  0  0
 23 26  1  0  0  0
  3  5  1  0  0  0
  3  6  2  0  0  0
 24 29  2  0  0  0
 25 30  1  0  0  0
 26 27  1  0  0  0
 26 28  2  0  0  0
  4  5  2  0  0  0
  4  8  1  0  0  0
  5 10  1  0  0  0
  6 12  1  0  0  0
 27 30  1  0  0  0
 28 29  1  0  0  0
 28 19  1  0  0  0
  7  8  2  0  0  0
  7  9  1  0  0  0
  8 13  1  0  0  0
  9 10  1  0  0  0
  9 11  2  0  0  0
 32 31  1  0  0  0
 32 33  1  0  0  0
 32 34  2  0  0  0
 15 17  1  0  0  0
 15 19  1  0  0  0
 16 18  1  0  0  0
 16 19  1  0  0  0
 17 20  1  0  0  0
 18 20  1  0  0  0
 13 14  1  0  0  0
 31 10  1  0  0  0
 14 20  1  0  0  0
 33 35  1  0  0  0
 33 36  1  0  0  0
 20 21  1  0  0  0
M  CHG 1  20   1
M  END
> <minimizedAffinity>
-10.39164

> <CNNscore>
0.4733088613

> <CNNaffinity>
7.0284051895

> <CNN_VS>
3.3266065121

> <CNNaffinity_variance>
0.0643175617

$$$$



 36 40  0  0  0  0  0  0  0  0999 V2000
   16.4333    0.4579   58.1000 C   0  0  0  0  0  0  0  0  0  0  0  0
   17.6890    0.6806   57.5365 C   0  0  0  0  0  0  0  0  0  0  0  0
   16.7901    0.1653   55.3629 C   0  0  0  0  0  0  0  0  0  0  0  0
   15.3341    0.0849   57.3044 C   0  0  0  0  0  0  0  0  0  0  0  0
   15.5157   -0.0641   55.9149 C   0  0  0  0  0  0  0  0  0  0  0  0
   17.8670    0.5346   56.1685 C   0  0  0  0  0  0  0  0  0  0  0  0
   12.9875   -0.5066   57.0939 C   0  0  0  0  0  0  0  0  0  0  0  0
   14.0020   -0.1524   57.8928 C   0  0  0  0  0  0  0  0  0  0  0  0
   13.1375   -0.6744   55.6288 C   0  0  0  0  0  0  0  0  0  0  0  0
   14.4040   -0.4452   55.0943 N   0  0  0  0  0  0  0  0  0  0  0  0
   12.1429   -1.0026   54.9809 O   0  0  0  0  0  0  0  0  0  0  0  0
   19.0707    0.7474   55.6215 F   0  0  0  0  0  0  0  0  0  0  0  0
   13.7892    0.0024   59.3717 C   0  0  0  0  0  0  0  0  0  0  0  0
   13.0413    1.2845   59.6744 C   0  0  0  0  0  0  0  0  0  0  0  0
   11.4260   -0.1864   62.8103 C   0  0  0  0  0  0  0  0  0  0  0  0
    9.6398    0.7013   61.3214 C   0  0  0  0  0  0  0  0  0  0  0  0
   12.4274   -0.0828   61.6679 C   0  0  0  0  0  0  0  0  0  0  0  0
   10.6469    0.8079   60.1833 C   0  0  0  0  0  0  0  0  0  0  0  0
   10.0585   -0.3168   62.2901 N   0  0  0  0  0  0  0  0  0  0  0  0
   12.0222    1.0444   60.7524 N   0  0  0  0  0  0  0  0  0  0  0  0
   11.9781    1.9036   61.3202 H   0  0  0  0  0  0  0  0  0  0  0  0
    7.2002   -2.1532   64.7361 C   0  0  0  0  0  0  0  0  0  0  0  0
    9.0628    0.9978   64.8493 C   0  0  0  0  0  0  0  0  0  0  0  0
    7.6888   -2.7020   63.5636 C   0  0  0  0  0  0  0  0  0  0  0  0
    8.4097    1.2830   66.0250 C   0  0  0  0  0  0  0  0  0  0  0  0
    8.6787   -0.2663   64.2892 C   0  0  0  0  0  0  0  0  0  0  0  0
    7.7236   -0.9030   65.0867 C   0  0  0  0  0  0  0  0  0  0  0  0
    9.1035   -0.9160   63.1195 C   0  0  0  0  0  0  0  0  0  0  0  0
    8.6081   -2.1232   62.7666 N   0  0  0  0  0  0  0  0  0  0  0  0
    7.3292    0.0429   66.4726 S   0  0  0  0  0  0  0  0  0  0  0  0
   14.5988   -0.5987   53.6549 C   0  0  0  0  0  0  0  0  0  0  0  0
   14.2183    0.6825   52.9493 C   0  0  0  0  0  0  0  0  0  0  0  0
   12.9814    0.6010   52.3467 N   0  0  0  0  0  0  0  0  0  0  0  0
   14.9101    1.6970   52.9504 O   0  0  0  0  0  0  0  0  0  0  0  0
   12.4292   -0.2483   52.4023 H   0  0  0  0  0  0  0  0  0  0  0  0
   12.5757    1.3755   51.8308 H   0  0  0  0  0  0  0  0  0  0  0  0
  1  2  2  0  0  0
  1  4  1  0  0  0
  2  6  1  0  0  0
 22 24  1  0  0  0
 22 27  2  0  0  0
 23 25  2  0  0  0
 23 26  1  0  0  0
  3  5  1  0  0  0
  3  6  2  0  0  0
 24 29  2  0  0  0
 25 30  1  0  0  0
 26 27  1  0  0  0
 26 28  2  0  0  0
  4  5  2  0  0  0
  4  8  1  0  0  0
  5 10  1  0  0  0
  6 12  1  0  0  0
 27 30  1  0  0  0
 28 29  1  0  0  0
 28 19  1  0  0  0
  7  8  2  0  0  0
  7  9  1  0  0  0
  8 13  1  0  0  0
  9 10  1  0  0  0
  9 11  2  0  0  0
 32 31  1  0  0  0
 32 33  1  0  0  0
 32 34  2  0  0  0
 15 17  1  0  0  0
 15 19  1  0  0  0
 16 18  1  0  0  0
 16 19  1  0  0  0
 17 20  1  0  0  0
 18 20  1  0  0  0
 13 14  1  0  0  0
 31 10  1  0  0  0
 14 20  1  0  0  0
 33 35  1  0  0  0
 33 36  1  0  0  0
 20 21  1  0  0  0
M  CHG 1  20   1
M  END
> <minimizedAffinity>
-9.12863

> <CNNscore>
0.4004786909

> <CNNaffinity>
7.2170577049

> <CNN_VS>
2.8902778625

> <CNNaffinity_variance>
0.1141161174

$$$$



 36 40  0  0  0  0  0  0  0  0999 V2000
   15.2249    1.0218   58.8531 C   0  0  0  0  0  0  0  0  0  0  0  0
   16.5174    1.4011   58.4932 C   0  0  0  0  0  0  0  0  0  0  0  0
   16.1337    0.5526   56.2727 C   0  0  0  0  0  0  0  0  0  0  0  0
   14.3644    0.4012   57.9286 C   0  0  0  0  0  0  0  0  0  0  0  0
   14.8263    0.1626   56.6188 C   0  0  0  0  0  0  0  0  0  0  0  0
   16.9713    1.1668   57.2035 C   0  0  0  0  0  0  0  0  0  0  0  0
   12.2147   -0.5913   57.3860 C   0  0  0  0  0  0  0  0  0  0  0  0
   12.9952   -0.0030   58.3013 C   0  0  0  0  0  0  0  0  0  0  0  0
   12.6630   -0.8603   55.9990 C   0  0  0  0  0  0  0  0  0  0  0  0
   13.9596   -0.4702   55.6687 N   0  0  0  0  0  0  0  0  0  0  0  0
   11.8694   -1.4064   55.2318 O   0  0  0  0  0  0  0  0  0  0  0  0
   18.2117    1.5291   56.8520 F   0  0  0  0  0  0  0  0  0  0  0  0
   12.4851    0.2438   59.6924 C   0  0  0  0  0  0  0  0  0  0  0  0
   10.9761    0.3763   59.6944 C   0  0  0  0  0  0  0  0  0  0  0  0
    8.9481   -2.8271   60.1766 C   0  0  0  0  0  0  0  0  0  0  0  0
    9.1508   -1.6613   62.3664 C   0  0  0  0  0  0  0  0  0  0  0  0
    9.4364   -1.5723   59.4654 C   0  0  0  0  0  0  0  0  0  0  0  0
    9.6438   -0.4102   61.6503 C   0  0  0  0  0  0  0  0  0  0  0  0
    8.3366   -2.4857   61.4677 N   0  0  0  0  0  0  0  0  0  0  0  0
   10.3558   -0.8068   60.3827 N   0  0  0  0  0  0  0  0  0  0  0  0
   11.1266   -1.4387   60.6460 H   0  0  0  0  0  0  0  0  0  0  0  0
    5.5935   -5.1779   63.1269 C   0  0  0  0  0  0  0  0  0  0  0  0
    6.1144   -3.7336   59.8022 C   0  0  0  0  0  0  0  0  0  0  0  0
    6.6222   -4.5807   63.8339 C   0  0  0  0  0  0  0  0  0  0  0  0
    5.0298   -4.4606   59.3720 C   0  0  0  0  0  0  0  0  0  0  0  0
    6.4053   -3.9340   61.1931 C   0  0  0  0  0  0  0  0  0  0  0  0
    5.5033   -4.8299   61.7738 C   0  0  0  0  0  0  0  0  0  0  0  0
    7.4112   -3.3875   62.0057 C   0  0  0  0  0  0  0  0  0  0  0  0
    7.5121   -3.7131   63.3138 N   0  0  0  0  0  0  0  0  0  0  0  0
    4.3468   -5.3917   60.6259 S   0  0  0  0  0  0  0  0  0  0  0  0
   14.4444   -0.7154   54.3128 C   0  0  0  0  0  0  0  0  0  0  0  0
   13.9276    0.3592   53.3843 C   0  0  0  0  0  0  0  0  0  0  0  0
   12.9836   -0.1206   52.5020 N   0  0  0  0  0  0  0  0  0  0  0  0
   14.2737    1.5362   53.4383 O   0  0  0  0  0  0  0  0  0  0  0  0
   12.7029   -1.0954   52.5179 H   0  0  0  0  0  0  0  0  0  0  0  0
   12.5349    0.4717   51.8104 H   0  0  0  0  0  0  0  0  0  0  0  0
  1  2  2  0  0  0
  1  4  1  0  0  0
  2  6  1  0  0  0
 22 24  1  0  0  0
 22 27  2  0  0  0
 23 25  2  0  0  0
 23 26  1  0  0  0
  3  5  1  0  0  0
  3  6  2  0  0  0
 24 29  2  0  0  0
 25 30  1  0  0  0
 26 27  1  0  0  0
 26 28  2  0  0  0
  4  5  2  0  0  0
  4  8  1  0  0  0
  5 10  1  0  0  0
  6 12  1  0  0  0
 27 30  1  0  0  0
 28 29  1  0  0  0
 28 19  1  0  0  0
  7  8  2  0  0  0
  7  9  1  0  0  0
  8 13  1  0  0  0
  9 10  1  0  0  0
  9 11  2  0  0  0
 32 31  1  0  0  0
 32 33  1  0  0  0
 32 34  2  0  0  0
 15 17  1  0  0  0
 15 19  1  0  0  0
 16 18  1  0  0  0
 16 19  1  0  0  0
 17 20  1  0  0  0
 18 20  1  0  0  0
 13 14  1  0  0  0
 31 10  1  0  0  0
 14 20  1  0  0  0
 33 35  1  0  0  0
 33 36  1  0  0  0
 20 21  1  0  0  0
M  CHG 1  20   1
M  END
> <minimizedAffinity>
-8.82851

> <CNNscore>
0.3795972466

> <CNNaffinity>
6.7199454308

> <CNN_VS>
2.5508728027

> <CNNaffinity_variance>
0.0811088011

$$$$



 36 40  0  0  0  0  0  0  0  0999 V2000
   13.5267    0.9886   55.4108 C   0  0  0  0  0  0  0  0  0  0  0  0
   13.7160    1.3203   54.0699 C   0  0  0  0  0  0  0  0  0  0  0  0
   16.0034    0.5841   54.2247 C   0  0  0  0  0  0  0  0  0  0  0  0
   14.5729    0.4487   56.1819 C   0  0  0  0  0  0  0  0  0  0  0  0
   15.8303    0.2441   55.5795 C   0  0  0  0  0  0  0  0  0  0  0  0
   14.9538    1.1178   53.4772 C   0  0  0  0  0  0  0  0  0  0  0  0
   15.4075   -0.4151   58.2933 C   0  0  0  0  0  0  0  0  0  0  0  0
   14.3807    0.0948   57.6013 C   0  0  0  0  0  0  0  0  0  0  0  0
   16.7449   -0.6449   57.6970 C   0  0  0  0  0  0  0  0  0  0  0  0
   16.9040   -0.3036   56.3551 N   0  0  0  0  0  0  0  0  0  0  0  0
   17.6241   -1.1189   58.4174 O   0  0  0  0  0  0  0  0  0  0  0  0
   15.1416    1.4343   52.1896 F   0  0  0  0  0  0  0  0  0  0  0  0
   13.0474    0.3051   58.2602 C   0  0  0  0  0  0  0  0  0  0  0  0
   13.0717    1.5398   59.1375 C   0  0  0  0  0  0  0  0  0  0  0  0
   11.8126   -0.1976   62.3002 C   0  0  0  0  0  0  0  0  0  0  0  0
   10.0647    1.3807   61.4945 C   0  0  0  0  0  0  0  0  0  0  0  0
   12.5413   -0.0672   60.9695 C   0  0  0  0  0  0  0  0  0  0  0  0
   10.8004    1.5116   60.1669 C   0  0  0  0  0  0  0  0  0  0  0  0
   10.3838    0.1033   62.1399 N   0  0  0  0  0  0  0  0  0  0  0  0
   12.2757    1.2986   60.3891 N   0  0  0  0  0  0  0  0  0  0  0  0
   12.5877    1.9952   61.0818 H   0  0  0  0  0  0  0  0  0  0  0  0
    7.7429   -1.4677   64.9829 C   0  0  0  0  0  0  0  0  0  0  0  0
    8.9333   -2.5352   61.6883 C   0  0  0  0  0  0  0  0  0  0  0  0
    8.4291   -0.2756   65.1336 C   0  0  0  0  0  0  0  0  0  0  0  0
    8.1376   -3.6488   61.8177 C   0  0  0  0  0  0  0  0  0  0  0  0
    8.8548   -1.6577   62.8210 C   0  0  0  0  0  0  0  0  0  0  0  0
    7.9783   -2.1581   63.7879 C   0  0  0  0  0  0  0  0  0  0  0  0
    9.4979   -0.4368   63.0793 C   0  0  0  0  0  0  0  0  0  0  0  0
    9.2817    0.2422   64.2280 N   0  0  0  0  0  0  0  0  0  0  0  0
    7.2876   -3.6585   63.2952 S   0  0  0  0  0  0  0  0  0  0  0  0
   18.2052   -0.5128   55.7252 C   0  0  0  0  0  0  0  0  0  0  0  0
   19.1334    0.6252   56.0824 C   0  0  0  0  0  0  0  0  0  0  0  0
   20.4583    0.3037   55.8797 N   0  0  0  0  0  0  0  0  0  0  0  0
   18.7507    1.7272   56.4659 O   0  0  0  0  0  0  0  0  0  0  0  0
   20.7253   -0.6095   55.5274 H   0  0  0  0  0  0  0  0  0  0  0  0
   21.2117    0.9569   56.0699 H   0  0  0  0  0  0  0  0  0  0  0  0
  1  2  2  0  0  0
  1  4  1  0  0  0
  2  6  1  0  0  0
 22 24  1  0  0  0
 22 27  2  0  0  0
 23 25  2  0  0  0
 23 26  1  0  0  0
  3  5  1  0  0  0
  3  6  2  0  0  0
 24 29  2  0  0  0
 25 30  1  0  0  0
 26 27  1  0  0  0
 26 28  2  0  0  0
  4  5  2  0  0  0
  4  8  1  0  0  0
  5 10  1  0  0  0
  6 12  1  0  0  0
 27 30  1  0  0  0
 28 29  1  0  0  0
 28 19  1  0  0  0
  7  8  2  0  0  0
  7  9  1  0  0  0
  8 13  1  0  0  0
  9 10  1  0  0  0
  9 11  2  0  0  0
 32 31  1  0  0  0
 32 33  1  0  0  0
 32 34  2  0  0  0
 15 17  1  0  0  0
 15 19  1  0  0  0
 16 18  1  0  0  0
 16 19  1  0  0  0
 17 20  1  0  0  0
 18 20  1  0  0  0
 13 14  1  0  0  0
 31 10  1  0  0  0
 14 20  1  0  0  0
 33 35  1  0  0  0
 33 36  1  0  0  0
 20 21  1  0  0  0
M  CHG 1  20   1
M  END
> <minimizedAffinity>
-9.73549

> <CNNscore>
0.3148591816

> <CNNaffinity>
6.8403902054

> <CNN_VS>
2.1537597179

> <CNNaffinity_variance>
0.1054893881

$$$$



 36 40  0  0  0  0  0  0  0  0999 V2000
   13.4342    0.6540   56.5913 C   0  0  0  0  0  0  0  0  0  0  0  0
   13.3886    0.5973   55.1990 C   0  0  0  0  0  0  0  0  0  0  0  0
   15.7022   -0.0692   55.1638 C   0  0  0  0  0  0  0  0  0  0  0  0
   14.6150    0.3500   57.2940 C   0  0  0  0  0  0  0  0  0  0  0  0
   15.7664   -0.0165   56.5689 C   0  0  0  0  0  0  0  0  0  0  0  0
   14.5221    0.2356   54.4857 C   0  0  0  0  0  0  0  0  0  0  0  0
   15.8190    0.1100   59.3901 C   0  0  0  0  0  0  0  0  0  0  0  0
   14.6715    0.4074   58.7673 C   0  0  0  0  0  0  0  0  0  0  0  0
   17.0514   -0.2791   58.6642 C   0  0  0  0  0  0  0  0  0  0  0  0
   16.9754   -0.3269   57.2734 N   0  0  0  0  0  0  0  0  0  0  0  0
   18.0563   -0.5338   59.3289 O   0  0  0  0  0  0  0  0  0  0  0  0
   14.4843    0.1791   53.1483 F   0  0  0  0  0  0  0  0  0  0  0  0
   13.4541    0.7953   59.5571 C   0  0  0  0  0  0  0  0  0  0  0  0
   12.6209   -0.4248   59.8915 C   0  0  0  0  0  0  0  0  0  0  0  0
   10.7891    1.1131   62.8725 C   0  0  0  0  0  0  0  0  0  0  0  0
    9.4155   -0.7473   61.9518 C   0  0  0  0  0  0  0  0  0  0  0  0
   11.9828    0.6324   62.0584 C   0  0  0  0  0  0  0  0  0  0  0  0
   10.6114   -1.2210   61.1355 C   0  0  0  0  0  0  0  0  0  0  0  0
    9.8579    0.0065   63.1292 N   0  0  0  0  0  0  0  0  0  0  0  0
   11.4895   -0.0420   60.8035 N   0  0  0  0  0  0  0  0  0  0  0  0
   10.9103    0.6406   60.2926 H   0  0  0  0  0  0  0  0  0  0  0  0
    7.3002    0.3765   66.4227 C   0  0  0  0  0  0  0  0  0  0  0  0
   10.0107   -1.9044   65.4945 C   0  0  0  0  0  0  0  0  0  0  0  0
    7.2769    1.2143   65.3216 C   0  0  0  0  0  0  0  0  0  0  0  0
    9.8023   -2.5563   66.6868 C   0  0  0  0  0  0  0  0  0  0  0  0
    9.1238   -0.7927   65.3030 C   0  0  0  0  0  0  0  0  0  0  0  0
    8.2567   -0.6453   66.3893 C   0  0  0  0  0  0  0  0  0  0  0  0
    9.0112    0.1155   64.2384 C   0  0  0  0  0  0  0  0  0  0  0  0
    8.0933    1.1076   64.2551 N   0  0  0  0  0  0  0  0  0  0  0  0
    8.5439   -1.8466   67.5915 S   0  0  0  0  0  0  0  0  0  0  0  0
   18.1657   -0.7055   56.5162 C   0  0  0  0  0  0  0  0  0  0  0  0
   19.0089    0.5192   56.2456 C   0  0  0  0  0  0  0  0  0  0  0  0
   20.2916    0.1968   55.8578 N   0  0  0  0  0  0  0  0  0  0  0  0
   18.5879    1.6706   56.3176 O   0  0  0  0  0  0  0  0  0  0  0  0
   20.5844   -0.7713   55.7783 H   0  0  0  0  0  0  0  0  0  0  0  0
   20.9867    0.9029   55.6373 H   0  0  0  0  0  0  0  0  0  0  0  0
  1  2  2  0  0  0
  1  4  1  0  0  0
  2  6  1  0  0  0
 22 24  1  0  0  0
 22 27  2  0  0  0
 23 25  2  0  0  0
 23 26  1  0  0  0
  3  5  1  0  0  0
  3  6  2  0  0  0
 24 29  2  0  0  0
 25 30  1  0  0  0
 26 27  1  0  0  0
 26 28  2  0  0  0
  4  5  2  0  0  0
  4  8  1  0  0  0
  5 10  1  0  0  0
  6 12  1  0  0  0
 27 30  1  0  0  0
 28 29  1  0  0  0
 28 19  1  0  0  0
  7  8  2  0  0  0
  7  9  1  0  0  0
  8 13  1  0  0  0
  9 10  1  0  0  0
  9 11  2  0  0  0
 32 31  1  0  0  0
 32 33  1  0  0  0
 32 34  2  0  0  0
 15 17  1  0  0  0
 15 19  1  0  0  0
 16 18  1  0  0  0
 16 19  1  0  0  0
 17 20  1  0  0  0
 18 20  1  0  0  0
 13 14  1  0  0  0
 31 10  1  0  0  0
 14 20  1  0  0  0
 33 35  1  0  0  0
 33 36  1  0  0  0
 20 21  1  0  0  0
M  CHG 1  20   1
M  END
> <minimizedAffinity>
-9.32281

> <CNNscore>
0.3107289672

> <CNNaffinity>
6.8774819374

> <CNN_VS>
2.1370327473

> <CNNaffinity_variance>
0.0740939528

$$$$



 36 40  0  0  0  0  0  0  0  0999 V2000
    8.8092   -2.3560   61.7537 C   0  0  0  0  0  0  0  0  0  0  0  0
    8.1968   -3.5835   62.0026 C   0  0  0  0  0  0  0  0  0  0  0  0
    7.7989   -2.9080   64.2793 C   0  0  0  0  0  0  0  0  0  0  0  0
    8.9270   -1.3831   62.7636 C   0  0  0  0  0  0  0  0  0  0  0  0
    8.4145   -1.6639   64.0459 C   0  0  0  0  0  0  0  0  0  0  0  0
    7.6917   -3.8591   63.2649 C   0  0  0  0  0  0  0  0  0  0  0  0
    9.6621    0.8111   63.5025 C   0  0  0  0  0  0  0  0  0  0  0  0
    9.5734   -0.0815   62.5083 C   0  0  0  0  0  0  0  0  0  0  0  0
    9.1365    0.5540   64.8643 C   0  0  0  0  0  0  0  0  0  0  0  0
    8.5299   -0.6815   65.0832 N   0  0  0  0  0  0  0  0  0  0  0  0
    9.2671    1.4399   65.7099 O   0  0  0  0  0  0  0  0  0  0  0  0
    7.1022   -5.0363   63.5099 F   0  0  0  0  0  0  0  0  0  0  0  0
   10.1249    0.2359   61.1477 C   0  0  0  0  0  0  0  0  0  0  0  0
   11.0666    1.4206   61.2139 C   0  0  0  0  0  0  0  0  0  0  0  0
   11.4905    1.8614   57.4413 C   0  0  0  0  0  0  0  0  0  0  0  0
   13.6166    0.9885   58.3972 C   0  0  0  0  0  0  0  0  0  0  0  0
   10.7702    1.5239   58.7397 C   0  0  0  0  0  0  0  0  0  0  0  0
   12.8922    0.6576   59.6959 C   0  0  0  0  0  0  0  0  0  0  0  0
   12.6771    1.0123   57.2716 N   0  0  0  0  0  0  0  0  0  0  0  0
   11.7442    1.6152   59.8868 N   0  0  0  0  0  0  0  0  0  0  0  0
   12.1343    2.5694   59.8863 H   0  0  0  0  0  0  0  0  0  0  0  0
   14.1004    0.4785   53.3710 C   0  0  0  0  0  0  0  0  0  0  0  0
   13.2224   -1.7587   56.1341 C   0  0  0  0  0  0  0  0  0  0  0  0
   13.8348    1.7115   53.9402 C   0  0  0  0  0  0  0  0  0  0  0  0
   13.5662   -2.8136   55.3224 C   0  0  0  0  0  0  0  0  0  0  0  0
   13.3877   -0.4846   55.4947 C   0  0  0  0  0  0  0  0  0  0  0  0
   13.8630   -0.6327   54.1887 C   0  0  0  0  0  0  0  0  0  0  0  0
   13.1527    0.8152   55.9700 C   0  0  0  0  0  0  0  0  0  0  0  0
   13.3767    1.8987   55.1933 N   0  0  0  0  0  0  0  0  0  0  0  0
   14.0903   -2.2932   53.7861 S   0  0  0  0  0  0  0  0  0  0  0  0
    7.9973   -0.9788   66.4104 C   0  0  0  0  0  0  0  0  0  0  0  0
    9.0521   -1.6754   67.2389 C   0  0  0  0  0  0  0  0  0  0  0  0
   10.2909   -1.0843   67.1139 N   0  0  0  0  0  0  0  0  0  0  0  0
    8.8242   -2.6308   67.9759 O   0  0  0  0  0  0  0  0  0  0  0  0
   10.4241   -0.2733   66.5190 H   0  0  0  0  0  0  0  0  0  0  0  0
   11.1098   -1.4287   67.6050 H   0  0  0  0  0  0  0  0  0  0  0  0
  1  2  2  0  0  0
  1  4  1  0  0  0
  2  6  1  0  0  0
 22 24  1  0  0  0
 22 27  2  0  0  0
 23 25  2  0  0  0
 23 26  1  0  0  0
  3  5  1  0  0  0
  3  6  2  0  0  0
 24 29  2  0  0  0
 25 30  1  0  0  0
 26 27  1  0  0  0
 26 28  2  0  0  0
  4  5  2  0  0  0
  4  8  1  0  0  0
  5 10  1  0  0  0
  6 12  1  0  0  0
 27 30  1  0  0  0
 28 29  1  0  0  0
 28 19  1  0  0  0
  7  8  2  0  0  0
  7  9  1  0  0  0
  8 13  1  0  0  0
  9 10  1  0  0  0
  9 11  2  0  0  0
 32 31  1  0  0  0
 32 33  1  0  0  0
 32 34  2  0  0  0
 15 17  1  0  0  0
 15 19  1  0  0  0
 16 18  1  0  0  0
 16 19  1  0  0  0
 17 20  1  0  0  0
 18 20  1  0  0  0
 13 14  1  0  0  0
 31 10  1  0  0  0
 14 20  1  0  0  0
 33 35  1  0  0  0
 33 36  1  0  0  0
 20 21  1  0  0  0
M  CHG 1  20   1
M  END
> <minimizedAffinity>
-8.29527

> <CNNscore>
0.3020788133

> <CNNaffinity>
6.7454099655

> <CNN_VS>
2.0376453400

> <CNNaffinity_variance>
0.1601548791

$$$$



 29 32  0  0  0  0  0  0  0  0999 V2000
   12.6028   -0.8820   56.1602 C   0  0  0  0  0  0  0  0  0  0  0  0
   12.6849   -0.2437   54.9320 C   0  0  0  0  0  0  0  0  0  0  0  0
   20.1337   -0.1535   56.0978 C   0  0  0  0  0  0  0  0  0  0  0  0
   13.7274   -0.9533   56.9868 C   0  0  0  0  0  0  0  0  0  0  0  0
   13.8931    0.3159   54.5301 C   0  0  0  0  0  0  0  0  0  0  0  0
   19.0932    0.3790   55.3441 C   0  0  0  0  0  0  0  0  0  0  0  0
   18.5303   -0.8945   57.7390 C   0  0  0  0  0  0  0  0  0  0  0  0
   19.8517   -0.7939   57.2950 C   0  0  0  0  0  0  0  0  0  0  0  0
   14.9658   -0.3852   56.6156 C   0  0  0  0  0  0  0  0  0  0  0  0
   17.4515   -0.3545   57.0049 C   0  0  0  0  0  0  0  0  0  0  0  0
   15.0291    0.2426   55.3557 C   0  0  0  0  0  0  0  0  0  0  0  0
   17.7612    0.2762   55.7836 C   0  0  0  0  0  0  0  0  0  0  0  0
   16.1098   -0.4682   57.4489 N   0  0  0  0  0  0  0  0  0  0  0  0
   16.5147    1.0153   54.7471 S   0  0  0  0  0  0  0  0  0  0  0  0
   20.9590   -1.3690   58.1126 C   0  0  0  0  0  0  0  0  0  0  0  0
   20.9654   -0.9349   59.4075 F   0  0  0  0  0  0  0  0  0  0  0  0
   20.9271   -2.7319   58.1938 F   0  0  0  0  0  0  0  0  0  0  0  0
   22.1925   -1.0603   57.6167 F   0  0  0  0  0  0  0  0  0  0  0  0
   15.8910   -0.7641   58.8707 C   0  0  0  0  0  0  0  0  0  0  0  0
   15.1422    0.3754   59.5567 C   0  0  0  0  0  0  0  0  0  0  0  0
   14.2081   -0.1236   60.6520 C   0  0  0  0  0  0  0  0  0  0  0  0
   10.5853    0.9418   61.2642 C   0  0  0  0  0  0  0  0  0  0  0  0
   11.4729    2.2625   59.4435 C   0  0  0  0  0  0  0  0  0  0  0  0
   11.7764   -0.0087   61.2021 C   0  0  0  0  0  0  0  0  0  0  0  0
   12.6897    1.3503   59.3285 C   0  0  0  0  0  0  0  0  0  0  0  0
    9.1357    2.4030   60.0117 C   0  0  0  0  0  0  0  0  0  0  0  0
   10.3051    1.5272   59.9465 N   0  0  0  0  0  0  0  0  0  0  0  0
   12.9768    0.7368   60.6757 N   0  0  0  0  0  0  0  0  0  0  0  0
   13.1640    1.5112   61.3298 H   0  0  0  0  0  0  0  0  0  0  0  0
  1  2  1  0  0  0
  1  4  2  0  0  0
  2  5  2  0  0  0
  3  6  2  0  0  0
  3  8  1  0  0  0
  4  9  1  0  0  0
  5 11  1  0  0  0
  6 12  1  0  0  0
  7  8  2  0  0  0
  7 10  1  0  0  0
  8 15  1  0  0  0
  9 11  2  0  0  0
  9 13  1  0  0  0
 10 12  2  0  0  0
 10 13  1  0  0  0
 11 14  1  0  0  0
 12 14  1  0  0  0
 22 24  1  0  0  0
 22 27  1  0  0  0
 23 25  1  0  0  0
 23 27  1  0  0  0
 24 28  1  0  0  0
 25 28  1  0  0  0
 26 27  1  0  0  0
 20 19  1  0  0  0
 20 21  1  0  0  0
 19 13  1  0  0  0
 21 28  1  0  0  0
 15 16  1  0  0  0
 15 17  1  0  0  0
 15 18  1  0  0  0
 28 29  1  0  0  0
M  CHG 1  28   1
M  END
> <minimizedAffinity>
-9.07101

> <CNNscore>
0.6419665217

> <CNNaffinity>
7.2762556076

> <CNN_VS>
4.6711125374

> <CNNaffinity_variance>
0.1364760697

$$$$



 29 32  0  0  0  0  0  0  0  0999 V2000
    8.5739   -1.0299   57.7335 C   0  0  0  0  0  0  0  0  0  0  0  0
    8.6008   -2.4160   57.7095 C   0  0  0  0  0  0  0  0  0  0  0  0
    8.3372   -2.0011   65.2335 C   0  0  0  0  0  0  0  0  0  0  0  0
    8.7409   -0.3488   58.9425 C   0  0  0  0  0  0  0  0  0  0  0  0
    8.7881   -3.1182   58.8954 C   0  0  0  0  0  0  0  0  0  0  0  0
    8.6042   -2.8285   64.1480 C   0  0  0  0  0  0  0  0  0  0  0  0
    8.5716   -0.0812   63.7940 C   0  0  0  0  0  0  0  0  0  0  0  0
    8.3176   -0.6260   65.0557 C   0  0  0  0  0  0  0  0  0  0  0  0
    8.9456   -1.0298   60.1625 C   0  0  0  0  0  0  0  0  0  0  0  0
    8.8582   -0.8914   62.6734 C   0  0  0  0  0  0  0  0  0  0  0  0
    8.9516   -2.4381   60.1153 C   0  0  0  0  0  0  0  0  0  0  0  0
    8.8554   -2.2859   62.8751 C   0  0  0  0  0  0  0  0  0  0  0  0
    9.1030   -0.3392   61.3906 N   0  0  0  0  0  0  0  0  0  0  0  0
    9.2076   -3.4413   61.5653 S   0  0  0  0  0  0  0  0  0  0  0  0
    8.0326    0.2721   66.2122 C   0  0  0  0  0  0  0  0  0  0  0  0
    8.4806   -0.2153   67.4069 F   0  0  0  0  0  0  0  0  0  0  0  0
    8.6005    1.5087   66.0964 F   0  0  0  0  0  0  0  0  0  0  0  0
    6.6977    0.4967   66.3857 F   0  0  0  0  0  0  0  0  0  0  0  0
    9.4815    1.0783   61.3259 C   0  0  0  0  0  0  0  0  0  0  0  0
   10.8478    1.3084   61.9663 C   0  0  0  0  0  0  0  0  0  0  0  0
   11.6923    0.0407   61.9977 C   0  0  0  0  0  0  0  0  0  0  0  0
   14.7051   -0.5700   59.7205 C   0  0  0  0  0  0  0  0  0  0  0  0
   13.3020    1.1126   58.6969 C   0  0  0  0  0  0  0  0  0  0  0  0
   13.9406   -0.4579   61.0355 C   0  0  0  0  0  0  0  0  0  0  0  0
   12.4969    1.2735   59.9821 C   0  0  0  0  0  0  0  0  0  0  0  0
   15.4540    0.5915   57.7468 C   0  0  0  0  0  0  0  0  0  0  0  0
   14.6823    0.7009   58.9844 N   0  0  0  0  0  0  0  0  0  0  0  0
   12.5250   -0.0246   60.7489 N   0  0  0  0  0  0  0  0  0  0  0  0
   12.1035   -0.7451   60.1443 H   0  0  0  0  0  0  0  0  0  0  0  0
  1  2  1  0  0  0
  1  4  2  0  0  0
  2  5  2  0  0  0
  3  6  2  0  0  0
  3  8  1  0  0  0
  4  9  1  0  0  0
  5 11  1  0  0  0
  6 12  1  0  0  0
  7  8  2  0  0  0
  7 10  1  0  0  0
  8 15  1  0  0  0
  9 11  2  0  0  0
  9 13  1  0  0  0
 10 12  2  0  0  0
 10 13  1  0  0  0
 11 14  1  0  0  0
 12 14  1  0  0  0
 22 24  1  0  0  0
 22 27  1  0  0  0
 23 25  1  0  0  0
 23 27  1  0  0  0
 24 28  1  0  0  0
 25 28  1  0  0  0
 26 27  1  0  0  0
 20 19  1  0  0  0
 20 21  1  0  0  0
 19 13  1  0  0  0
 21 28  1  0  0  0
 15 16  1  0  0  0
 15 17  1  0  0  0
 15 18  1  0  0  0
 28 29  1  0  0  0
M  CHG 1  28   1
M  END
> <minimizedAffinity>
-7.33850

> <CNNscore>
0.4557695687

> <CNNaffinity>
6.8991317749

> <CNN_VS>
3.1444144249

> <CNNaffinity_variance>
0.2229348421

$$$$



 29 32  0  0  0  0  0  0  0  0999 V2000
    9.9888   -0.6305   65.7321 C   0  0  0  0  0  0  0  0  0  0  0  0
    9.4696   -1.8828   66.0236 C   0  0  0  0  0  0  0  0  0  0  0  0
    9.1436   -2.8766   58.5564 C   0  0  0  0  0  0  0  0  0  0  0  0
    9.9620   -0.1515   64.4194 C   0  0  0  0  0  0  0  0  0  0  0  0
    8.9308   -2.6561   65.0007 C   0  0  0  0  0  0  0  0  0  0  0  0
    8.7030   -3.3498   59.7878 C   0  0  0  0  0  0  0  0  0  0  0  0
    9.7511   -0.7921   59.6046 C   0  0  0  0  0  0  0  0  0  0  0  0
    9.6712   -1.5976   58.4652 C   0  0  0  0  0  0  0  0  0  0  0  0
    9.4113   -0.9048   63.3594 C   0  0  0  0  0  0  0  0  0  0  0  0
    9.3019   -1.2363   60.8676 C   0  0  0  0  0  0  0  0  0  0  0  0
    8.9059   -2.1811   63.6774 C   0  0  0  0  0  0  0  0  0  0  0  0
    8.7857   -2.5454   60.9384 C   0  0  0  0  0  0  0  0  0  0  0  0
    9.3951   -0.4239   62.0258 N   0  0  0  0  0  0  0  0  0  0  0  0
    8.1701   -3.2487   62.4553 S   0  0  0  0  0  0  0  0  0  0  0  0
   10.1470   -1.0785   57.1501 C   0  0  0  0  0  0  0  0  0  0  0  0
   11.3453   -1.6024   56.7562 F   0  0  0  0  0  0  0  0  0  0  0  0
    9.2894   -1.3355   56.1187 F   0  0  0  0  0  0  0  0  0  0  0  0
   10.3220    0.2750   57.1525 F   0  0  0  0  0  0  0  0  0  0  0  0
    9.5574    1.0220   61.8261 C   0  0  0  0  0  0  0  0  0  0  0  0
   11.0333    1.3964   61.7211 C   0  0  0  0  0  0  0  0  0  0  0  0
   11.4595    1.6701   60.2842 C   0  0  0  0  0  0  0  0  0  0  0  0
   14.7708    0.8400   58.5578 C   0  0  0  0  0  0  0  0  0  0  0  0
   14.6658   -0.3863   60.6392 C   0  0  0  0  0  0  0  0  0  0  0  0
   13.2929    1.2032   58.6564 C   0  0  0  0  0  0  0  0  0  0  0  0
   13.1848   -0.0587   60.7983 C   0  0  0  0  0  0  0  0  0  0  0  0
   16.4589   -0.7970   59.0831 C   0  0  0  0  0  0  0  0  0  0  0  0
   15.0472   -0.4407   59.2218 N   0  0  0  0  0  0  0  0  0  0  0  0
   12.8912    1.2500   60.1091 N   0  0  0  0  0  0  0  0  0  0  0  0
   13.4731    1.9704   60.5618 H   0  0  0  0  0  0  0  0  0  0  0  0
  1  2  1  0  0  0
  1  4  2  0  0  0
  2  5  2  0  0  0
  3  6  2  0  0  0
  3  8  1  0  0  0
  4  9  1  0  0  0
  5 11  1  0  0  0
  6 12  1  0  0  0
  7  8  2  0  0  0
  7 10  1  0  0  0
  8 15  1  0  0  0
  9 11  2  0  0  0
  9 13  1  0  0  0
 10 12  2  0  0  0
 10 13  1  0  0  0
 11 14  1  0  0  0
 12 14  1  0  0  0
 22 24  1  0  0  0
 22 27  1  0  0  0
 23 25  1  0  0  0
 23 27  1  0  0  0
 24 28  1  0  0  0
 25 28  1  0  0  0
 26 27  1  0  0  0
 20 19  1  0  0  0
 20 21  1  0  0  0
 19 13  1  0  0  0
 21 28  1  0  0  0
 15 16  1  0  0  0
 15 17  1  0  0  0
 15 18  1  0  0  0
 28 29  1  0  0  0
M  CHG 1  28   1
M  END
> <minimizedAffinity>
-8.48995

> <CNNscore>
0.4025901854

> <CNNaffinity>
6.9593505859

> <CNN_VS>
2.8017661572

> <CNNaffinity_variance>
0.4547194541

$$$$



 29 32  0  0  0  0  0  0  0  0999 V2000
   17.8237    1.4183   56.8809 C   0  0  0  0  0  0  0  0  0  0  0  0
   18.0951    1.1738   55.5432 C   0  0  0  0  0  0  0  0  0  0  0  0
   10.9920   -1.3216   55.1286 C   0  0  0  0  0  0  0  0  0  0  0  0
   16.6484    0.9275   57.4562 C   0  0  0  0  0  0  0  0  0  0  0  0
   17.1874    0.4448   54.7822 C   0  0  0  0  0  0  0  0  0  0  0  0
   12.2287   -1.2973   54.4928 C   0  0  0  0  0  0  0  0  0  0  0  0
   12.0686   -0.6822   57.1891 C   0  0  0  0  0  0  0  0  0  0  0  0
   10.9113   -1.0105   56.4775 C   0  0  0  0  0  0  0  0  0  0  0  0
   15.7115    0.1734   56.7160 C   0  0  0  0  0  0  0  0  0  0  0  0
   13.3414   -0.6599   56.5777 C   0  0  0  0  0  0  0  0  0  0  0  0
   16.0009   -0.0469   55.3547 C   0  0  0  0  0  0  0  0  0  0  0  0
   13.3957   -0.9627   55.2027 C   0  0  0  0  0  0  0  0  0  0  0  0
   14.5135   -0.3141   57.2966 N   0  0  0  0  0  0  0  0  0  0  0  0
   14.9254   -0.9868   54.2896 S   0  0  0  0  0  0  0  0  0  0  0  0
    9.5907   -1.0331   57.1709 C   0  0  0  0  0  0  0  0  0  0  0  0
    8.5281   -1.1488   56.3206 F   0  0  0  0  0  0  0  0  0  0  0  0
    9.4548   -2.0663   58.0537 F   0  0  0  0  0  0  0  0  0  0  0  0
    9.3587    0.1003   57.8949 F   0  0  0  0  0  0  0  0  0  0  0  0
   14.4586   -0.4017   58.7616 C   0  0  0  0  0  0  0  0  0  0  0  0
   14.1908    0.9675   59.3808 C   0  0  0  0  0  0  0  0  0  0  0  0
   12.7190    1.3553   59.3116 C   0  0  0  0  0  0  0  0  0  0  0  0
   11.7316    0.0704   62.7769 C   0  0  0  0  0  0  0  0  0  0  0  0
   10.2214    1.8572   62.1656 C   0  0  0  0  0  0  0  0  0  0  0  0
   12.2699   -0.0097   61.3522 C   0  0  0  0  0  0  0  0  0  0  0  0
   10.7158    1.8290   60.7231 C   0  0  0  0  0  0  0  0  0  0  0  0
    9.8214    0.5652   64.1595 C   0  0  0  0  0  0  0  0  0  0  0  0
   10.3378    0.5336   62.7916 N   0  0  0  0  0  0  0  0  0  0  0  0
   12.1433    1.3436   60.6991 N   0  0  0  0  0  0  0  0  0  0  0  0
   12.6997    2.0049   61.2608 H   0  0  0  0  0  0  0  0  0  0  0  0
  1  2  1  0  0  0
  1  4  2  0  0  0
  2  5  2  0  0  0
  3  6  2  0  0  0
  3  8  1  0  0  0
  4  9  1  0  0  0
  5 11  1  0  0  0
  6 12  1  0  0  0
  7  8  2  0  0  0
  7 10  1  0  0  0
  8 15  1  0  0  0
  9 11  2  0  0  0
  9 13  1  0  0  0
 10 12  2  0  0  0
 10 13  1  0  0  0
 11 14  1  0  0  0
 12 14  1  0  0  0
 22 24  1  0  0  0
 22 27  1  0  0  0
 23 25  1  0  0  0
 23 27  1  0  0  0
 24 28  1  0  0  0
 25 28  1  0  0  0
 26 27  1  0  0  0
 20 19  1  0  0  0
 20 21  1  0  0  0
 19 13  1  0  0  0
 21 28  1  0  0  0
 15 16  1  0  0  0
 15 17  1  0  0  0
 15 18  1  0  0  0
 28 29  1  0  0  0
M  CHG 1  28   1
M  END
> <minimizedAffinity>
-8.18204

> <CNNscore>
0.2746949196

> <CNNaffinity>
6.6953554153

> <CNN_VS>
1.8391801119

> <CNNaffinity_variance>
0.3043777645

$$$$



 29 32  0  0  0  0  0  0  0  0999 V2000
   10.5635   -0.9477   62.1770 C   0  0  0  0  0  0  0  0  0  0  0  0
    9.2934   -1.3225   61.7659 C   0  0  0  0  0  0  0  0  0  0  0  0
   12.0965   -1.1117   54.7695 C   0  0  0  0  0  0  0  0  0  0  0  0
   11.5099   -0.5365   61.2344 C   0  0  0  0  0  0  0  0  0  0  0  0
    8.9744   -1.2916   60.4125 C   0  0  0  0  0  0  0  0  0  0  0  0
   10.9313   -1.1443   55.5281 C   0  0  0  0  0  0  0  0  0  0  0  0
   13.3171   -0.3998   56.7230 C   0  0  0  0  0  0  0  0  0  0  0  0
   13.2913   -0.7422   55.3682 C   0  0  0  0  0  0  0  0  0  0  0  0
   11.2158   -0.4813   59.8543 C   0  0  0  0  0  0  0  0  0  0  0  0
   12.1509   -0.4104   57.5194 C   0  0  0  0  0  0  0  0  0  0  0  0
    9.9244   -0.8835   59.4593 C   0  0  0  0  0  0  0  0  0  0  0  0
   10.9524   -0.8057   56.8929 C   0  0  0  0  0  0  0  0  0  0  0  0
   12.1795   -0.0757   58.8969 N   0  0  0  0  0  0  0  0  0  0  0  0
    9.3957   -0.8615   57.7579 S   0  0  0  0  0  0  0  0  0  0  0  0
   14.5479   -0.7032   54.5651 C   0  0  0  0  0  0  0  0  0  0  0  0
   15.6799   -0.8630   55.3123 F   0  0  0  0  0  0  0  0  0  0  0  0
   14.6138   -1.6735   53.6063 F   0  0  0  0  0  0  0  0  0  0  0  0
   14.7103    0.4787   53.9022 F   0  0  0  0  0  0  0  0  0  0  0  0
   13.3337    0.6920   59.3822 C   0  0  0  0  0  0  0  0  0  0  0  0
   14.5580   -0.2053   59.5424 C   0  0  0  0  0  0  0  0  0  0  0  0
   15.7261    0.5220   60.1964 C   0  0  0  0  0  0  0  0  0  0  0  0
   17.7948    1.1415   57.0386 C   0  0  0  0  0  0  0  0  0  0  0  0
   18.7097   -0.7800   58.1868 C   0  0  0  0  0  0  0  0  0  0  0  0
   16.5472    1.1157   57.9155 C   0  0  0  0  0  0  0  0  0  0  0  0
   17.4887   -0.8616   59.0969 C   0  0  0  0  0  0  0  0  0  0  0  0
   19.5300   -0.1719   56.0044 C   0  0  0  0  0  0  0  0  0  0  0  0
   18.3598   -0.2051   56.8811 N   0  0  0  0  0  0  0  0  0  0  0  0
   16.8964    0.5162   59.2544 N   0  0  0  0  0  0  0  0  0  0  0  0
   17.6232    1.1144   59.6745 H   0  0  0  0  0  0  0  0  0  0  0  0
  1  2  1  0  0  0
  1  4  2  0  0  0
  2  5  2  0  0  0
  3  6  2  0  0  0
  3  8  1  0  0  0
  4  9  1  0  0  0
  5 11  1  0  0  0
  6 12  1  0  0  0
  7  8  2  0  0  0
  7 10  1  0  0  0
  8 15  1  0  0  0
  9 11  2  0  0  0
  9 13  1  0  0  0
 10 12  2  0  0  0
 10 13  1  0  0  0
 11 14  1  0  0  0
 12 14  1  0  0  0
 22 24  1  0  0  0
 22 27  1  0  0  0
 23 25  1  0  0  0
 23 27  1  0  0  0
 24 28  1  0  0  0
 25 28  1  0  0  0
 26 27  1  0  0  0
 20 19  1  0  0  0
 20 21  1  0  0  0
 19 13  1  0  0  0
 21 28  1  0  0  0
 15 16  1  0  0  0
 15 17  1  0  0  0
 15 18  1  0  0  0
 28 29  1  0  0  0
M  CHG 1  28   1
M  END
> <minimizedAffinity>
-9.01319

> <CNNscore>
0.2680888474

> <CNNaffinity>
6.6877784729

> <CNN_VS>
1.7929188013

> <CNNaffinity_variance>
0.2384468615

$$$$



 29 32  0  0  0  0  0  0  0  0999 V2000
   10.2686   -0.6828   66.3957 C   0  0  0  0  0  0  0  0  0  0  0  0
    9.8774   -1.9452   66.8153 C   0  0  0  0  0  0  0  0  0  0  0  0
    8.7435   -3.4181   59.5080 C   0  0  0  0  0  0  0  0  0  0  0  0
   10.0532   -0.2887   65.0723 C   0  0  0  0  0  0  0  0  0  0  0  0
    9.2777   -2.8131   65.9089 C   0  0  0  0  0  0  0  0  0  0  0  0
    8.4860   -3.8414   60.8076 C   0  0  0  0  0  0  0  0  0  0  0  0
    9.3213   -1.2382   60.3606 C   0  0  0  0  0  0  0  0  0  0  0  0
    9.1647   -2.1161   59.2845 C   0  0  0  0  0  0  0  0  0  0  0  0
    9.4359   -1.1397   64.1295 C   0  0  0  0  0  0  0  0  0  0  0  0
    9.0569   -1.6312   61.6910 C   0  0  0  0  0  0  0  0  0  0  0  0
    9.0632   -2.4236   64.5748 C   0  0  0  0  0  0  0  0  0  0  0  0
    8.6467   -2.9637   61.8946 C   0  0  0  0  0  0  0  0  0  0  0  0
    9.2283   -0.7443   62.7839 N   0  0  0  0  0  0  0  0  0  0  0  0
    8.2658   -3.6095   63.5108 S   0  0  0  0  0  0  0  0  0  0  0  0
    9.4440   -1.6501   57.8951 C   0  0  0  0  0  0  0  0  0  0  0  0
    8.6604   -2.2481   56.9496 F   0  0  0  0  0  0  0  0  0  0  0  0
    9.2532   -0.3092   57.7200 F   0  0  0  0  0  0  0  0  0  0  0  0
   10.7309   -1.8905   57.5098 F   0  0  0  0  0  0  0  0  0  0  0  0
    9.2631    0.6938   62.4884 C   0  0  0  0  0  0  0  0  0  0  0  0
   10.5468    1.3289   63.0164 C   0  0  0  0  0  0  0  0  0  0  0  0
   11.7933    0.7297   62.3774 C   0  0  0  0  0  0  0  0  0  0  0  0
   12.6046    0.2105   58.6751 C   0  0  0  0  0  0  0  0  0  0  0  0
   11.1424    2.1259   58.8757 C   0  0  0  0  0  0  0  0  0  0  0  0
   12.8501    0.1960   60.1803 C   0  0  0  0  0  0  0  0  0  0  0  0
   11.3455    2.1670   60.3866 C   0  0  0  0  0  0  0  0  0  0  0  0
   12.1293    1.5759   56.7476 C   0  0  0  0  0  0  0  0  0  0  0  0
   12.3209    1.5702   58.1975 N   0  0  0  0  0  0  0  0  0  0  0  0
   11.6483    0.7756   60.8828 N   0  0  0  0  0  0  0  0  0  0  0  0
   10.8403    0.1831   60.6410 H   0  0  0  0  0  0  0  0  0  0  0  0
  1  2  1  0  0  0
  1  4  2  0  0  0
  2  5  2  0  0  0
  3  6  2  0  0  0
  3  8  1  0  0  0
  4  9  1  0  0  0
  5 11  1  0  0  0
  6 12  1  0  0  0
  7  8  2  0  0  0
  7 10  1  0  0  0
  8 15  1  0  0  0
  9 11  2  0  0  0
  9 13  1  0  0  0
 10 12  2  0  0  0
 10 13  1  0  0  0
 11 14  1  0  0  0
 12 14  1  0  0  0
 22 24  1  0  0  0
 22 27  1  0  0  0
 23 25  1  0  0  0
 23 27  1  0  0  0
 24 28  1  0  0  0
 25 28  1  0  0  0
 26 27  1  0  0  0
 20 19  1  0  0  0
 20 21  1  0  0  0
 19 13  1  0  0  0
 21 28  1  0  0  0
 15 16  1  0  0  0
 15 17  1  0  0  0
 15 18  1  0  0  0
 28 29  1  0  0  0
M  CHG 1  28   1
M  END
> <minimizedAffinity>
-7.79161

> <CNNscore>
0.2402441800

> <CNNaffinity>
6.5376882553

> <CNN_VS>
1.5706415176

> <CNNaffinity_variance>
0.5462850332

$$$$



 29 32  0  0  0  0  0  0  0  0999 V2000
   14.6978   -0.3502   54.1963 C   0  0  0  0  0  0  0  0  0  0  0  0
   13.6771   -1.0893   53.6178 C   0  0  0  0  0  0  0  0  0  0  0  0
    9.4262    1.3178   59.3613 C   0  0  0  0  0  0  0  0  0  0  0  0
   14.5355    0.1804   55.4790 C   0  0  0  0  0  0  0  0  0  0  0  0
   12.4938   -1.2905   54.3205 C   0  0  0  0  0  0  0  0  0  0  0  0
    9.5262    0.3898   58.3302 C   0  0  0  0  0  0  0  0  0  0  0  0
   11.7947    1.7319   59.1829 C   0  0  0  0  0  0  0  0  0  0  0  0
   10.5610    1.9920   59.7859 C   0  0  0  0  0  0  0  0  0  0  0  0
   13.3526   -0.0152   56.2252 C   0  0  0  0  0  0  0  0  0  0  0  0
   11.9341    0.7875   58.1422 C   0  0  0  0  0  0  0  0  0  0  0  0
   12.3232   -0.7545   55.6094 C   0  0  0  0  0  0  0  0  0  0  0  0
   10.7641    0.1279   57.7164 C   0  0  0  0  0  0  0  0  0  0  0  0
   13.1833    0.5333   57.5215 N   0  0  0  0  0  0  0  0  0  0  0  0
   10.7752   -1.0968   56.4223 S   0  0  0  0  0  0  0  0  0  0  0  0
   10.4668    2.9896   60.8911 C   0  0  0  0  0  0  0  0  0  0  0  0
   10.8836    2.5084   62.0995 F   0  0  0  0  0  0  0  0  0  0  0  0
   11.2135    4.1130   60.6781 F   0  0  0  0  0  0  0  0  0  0  0  0
    9.1910    3.4303   61.0927 F   0  0  0  0  0  0  0  0  0  0  0  0
   14.3940    0.9336   58.2500 C   0  0  0  0  0  0  0  0  0  0  0  0
   15.0538   -0.2708   58.9162 C   0  0  0  0  0  0  0  0  0  0  0  0
   16.4473    0.0507   59.4416 C   0  0  0  0  0  0  0  0  0  0  0  0
   19.6683   -1.6000   58.2025 C   0  0  0  0  0  0  0  0  0  0  0  0
   18.8009   -0.1951   56.4358 C   0  0  0  0  0  0  0  0  0  0  0  0
   18.7080   -0.9820   59.2134 C   0  0  0  0  0  0  0  0  0  0  0  0
   17.8155    0.4637   57.3954 C   0  0  0  0  0  0  0  0  0  0  0  0
   20.9623   -1.2341   56.2032 C   0  0  0  0  0  0  0  0  0  0  0  0
   20.0088   -0.6430   57.1415 N   0  0  0  0  0  0  0  0  0  0  0  0
   17.4697   -0.5095   58.4941 N   0  0  0  0  0  0  0  0  0  0  0  0
   17.0445   -1.3354   58.0473 H   0  0  0  0  0  0  0  0  0  0  0  0
  1  2  1  0  0  0
  1  4  2  0  0  0
  2  5  2  0  0  0
  3  6  2  0  0  0
  3  8  1  0  0  0
  4  9  1  0  0  0
  5 11  1  0  0  0
  6 12  1  0  0  0
  7  8  2  0  0  0
  7 10  1  0  0  0
  8 15  1  0  0  0
  9 11  2  0  0  0
  9 13  1  0  0  0
 10 12  2  0  0  0
 10 13  1  0  0  0
 11 14  1  0  0  0
 12 14  1  0  0  0
 22 24  1  0  0  0
 22 27  1  0  0  0
 23 25  1  0  0  0
 23 27  1  0  0  0
 24 28  1  0  0  0
 25 28  1  0  0  0
 26 27  1  0  0  0
 20 19  1  0  0  0
 20 21  1  0  0  0
 19 13  1  0  0  0
 21 28  1  0  0  0
 15 16  1  0  0  0
 15 17  1  0  0  0
 15 18  1  0  0  0
 28 29  1  0  0  0
M  CHG 1  28   1
M  END
> <minimizedAffinity>
-9.14923

> <CNNscore>
0.2144562602

> <CNNaffinity>
6.6022400856

> <CNN_VS>
1.4158917665

> <CNNaffinity_variance>
0.2933437824

$$$$



 29 32  0  0  0  0  0  0  0  0999 V2000
   13.9362    0.7474   56.1637 C   0  0  0  0  0  0  0  0  0  0  0  0
   12.8248    0.3570   55.4321 C   0  0  0  0  0  0  0  0  0  0  0  0
    9.4101   -0.4701   62.1034 C   0  0  0  0  0  0  0  0  0  0  0  0
   13.9537    0.5787   57.5509 C   0  0  0  0  0  0  0  0  0  0  0  0
   11.7308   -0.1950   56.0900 C   0  0  0  0  0  0  0  0  0  0  0  0
    9.3470   -0.7726   60.7474 C   0  0  0  0  0  0  0  0  0  0  0  0
   11.7522    0.0446   61.8527 C   0  0  0  0  0  0  0  0  0  0  0  0
   10.6131   -0.0579   62.6561 C   0  0  0  0  0  0  0  0  0  0  0  0
   12.8657    0.0103   58.2491 C   0  0  0  0  0  0  0  0  0  0  0  0
   11.7263   -0.2664   60.4754 C   0  0  0  0  0  0  0  0  0  0  0  0
   11.7412   -0.3624   57.4862 C   0  0  0  0  0  0  0  0  0  0  0  0
   10.4888   -0.6663   59.9333 C   0  0  0  0  0  0  0  0  0  0  0  0
   12.8787   -0.1498   59.6577 N   0  0  0  0  0  0  0  0  0  0  0  0
   10.2939   -1.1015   58.2166 S   0  0  0  0  0  0  0  0  0  0  0  0
   10.6937    0.2692   64.1094 C   0  0  0  0  0  0  0  0  0  0  0  0
    9.8156    1.2391   64.5013 F   0  0  0  0  0  0  0  0  0  0  0  0
   10.4353   -0.7959   64.9242 F   0  0  0  0  0  0  0  0  0  0  0  0
   11.9275    0.7215   64.4777 F   0  0  0  0  0  0  0  0  0  0  0  0
   14.1844   -0.1227   60.3295 C   0  0  0  0  0  0  0  0  0  0  0  0
   15.3194   -0.0258   59.3136 C   0  0  0  0  0  0  0  0  0  0  0  0
   16.5331   -0.8511   59.7223 C   0  0  0  0  0  0  0  0  0  0  0  0
   18.5384    0.3319   56.6868 C   0  0  0  0  0  0  0  0  0  0  0  0
   20.0074   -0.9428   58.1236 C   0  0  0  0  0  0  0  0  0  0  0  0
   17.3123   -0.1438   57.4592 C   0  0  0  0  0  0  0  0  0  0  0  0
   18.8241   -1.4556   58.9376 C   0  0  0  0  0  0  0  0  0  0  0  0
   20.7681   -0.2154   55.9562 C   0  0  0  0  0  0  0  0  0  0  0  0
   19.6153   -0.6657   56.7354 N   0  0  0  0  0  0  0  0  0  0  0  0
   17.7098   -0.4410   58.8832 N   0  0  0  0  0  0  0  0  0  0  0  0
   18.0750    0.4349   59.2855 H   0  0  0  0  0  0  0  0  0  0  0  0
  1  2  1  0  0  0
  1  4  2  0  0  0
  2  5  2  0  0  0
  3  6  2  0  0  0
  3  8  1  0  0  0
  4  9  1  0  0  0
  5 11  1  0  0  0
  6 12  1  0  0  0
  7  8  2  0  0  0
  7 10  1  0  0  0
  8 15  1  0  0  0
  9 11  2  0  0  0
  9 13  1  0  0  0
 10 12  2  0  0  0
 10 13  1  0  0  0
 11 14  1  0  0  0
 12 14  1  0  0  0
 22 24  1  0  0  0
 22 27  1  0  0  0
 23 25  1  0  0  0
 23 27  1  0  0  0
 24 28  1  0  0  0
 25 28  1  0  0  0
 26 27  1  0  0  0
 20 19  1  0  0  0
 20 21  1  0  0  0
 19 13  1  0  0  0
 21 28  1  0  0  0
 15 16  1  0  0  0
 15 17  1  0  0  0
 15 18  1  0  0  0
 28 29  1  0  0  0
M  CHG 1  28   1
M  END
> <minimizedAffinity>
-8.13565

> <CNNscore>
0.2134432197

> <CNNaffinity>
6.6230354309

> <CNN_VS>
1.4136420488

> <CNNaffinity_variance>
0.2231726646

$$$$



 29 32  0  0  0  0  0  0  0  0999 V2000
   12.7775   -0.2039   62.2854 C   0  0  0  0  0  0  0  0  0  0  0  0
   11.4501   -0.5979   62.3593 C   0  0  0  0  0  0  0  0  0  0  0  0
   11.7444   -1.0622   54.8393 C   0  0  0  0  0  0  0  0  0  0  0  0
   13.3460    0.1072   61.0472 C   0  0  0  0  0  0  0  0  0  0  0  0
   10.6959   -0.6862   61.1940 C   0  0  0  0  0  0  0  0  0  0  0  0
   10.9013   -1.0102   55.9442 C   0  0  0  0  0  0  0  0  0  0  0  0
   13.5356   -0.1914   56.1982 C   0  0  0  0  0  0  0  0  0  0  0  0
   13.0639   -0.6554   54.9672 C   0  0  0  0  0  0  0  0  0  0  0  0
   12.6058    0.0403   59.8464 C   0  0  0  0  0  0  0  0  0  0  0  0
   12.7037   -0.1140   57.3368 C   0  0  0  0  0  0  0  0  0  0  0  0
   11.2642   -0.3792   59.9449 C   0  0  0  0  0  0  0  0  0  0  0  0
   11.3720   -0.5490   57.1866 C   0  0  0  0  0  0  0  0  0  0  0  0
   13.1858    0.3444   58.5889 N   0  0  0  0  0  0  0  0  0  0  0  0
   10.1961   -0.5054   58.5244 S   0  0  0  0  0  0  0  0  0  0  0  0
   13.9781   -0.7062   53.7894 C   0  0  0  0  0  0  0  0  0  0  0  0
   15.0008    0.1969   53.8513 F   0  0  0  0  0  0  0  0  0  0  0  0
   14.5832   -1.9187   53.6194 F   0  0  0  0  0  0  0  0  0  0  0  0
   13.3339   -0.4501   52.6138 F   0  0  0  0  0  0  0  0  0  0  0  0
   14.4216    1.1378   58.5882 C   0  0  0  0  0  0  0  0  0  0  0  0
   15.6302    0.2658   58.2584 C   0  0  0  0  0  0  0  0  0  0  0  0
   16.4863    0.8607   57.1473 C   0  0  0  0  0  0  0  0  0  0  0  0
   20.0983   -0.0890   56.3186 C   0  0  0  0  0  0  0  0  0  0  0  0
   19.4922   -1.1407   58.4100 C   0  0  0  0  0  0  0  0  0  0  0  0
   18.6433    0.2724   56.0382 C   0  0  0  0  0  0  0  0  0  0  0  0
   18.0198   -0.8098   58.1903 C   0  0  0  0  0  0  0  0  0  0  0  0
   21.5940   -1.6674   57.3563 C   0  0  0  0  0  0  0  0  0  0  0  0
   20.1941   -1.3091   57.1308 N   0  0  0  0  0  0  0  0  0  0  0  0
   17.9134    0.4361   57.3475 N   0  0  0  0  0  0  0  0  0  0  0  0
   18.3829    1.1946   57.8639 H   0  0  0  0  0  0  0  0  0  0  0  0
  1  2  1  0  0  0
  1  4  2  0  0  0
  2  5  2  0  0  0
  3  6  2  0  0  0
  3  8  1  0  0  0
  4  9  1  0  0  0
  5 11  1  0  0  0
  6 12  1  0  0  0
  7  8  2  0  0  0
  7 10  1  0  0  0
  8 15  1  0  0  0
  9 11  2  0  0  0
  9 13  1  0  0  0
 10 12  2  0  0  0
 10 13  1  0  0  0
 11 14  1  0  0  0
 12 14  1  0  0  0
 22 24  1  0  0  0
 22 27  1  0  0  0
 23 25  1  0  0  0
 23 27  1  0  0  0
 24 28  1  0  0  0
 25 28  1  0  0  0
 26 27  1  0  0  0
 20 19  1  0  0  0
 20 21  1  0  0  0
 19 13  1  0  0  0
 21 28  1  0  0  0
 15 16  1  0  0  0
 15 17  1  0  0  0
 15 18  1  0  0  0
 28 29  1  0  0  0
M  CHG 1  28   1
M  END
> <minimizedAffinity>
-9.20736

> <CNNscore>
0.2051881254

> <CNNaffinity>
6.7775549889

> <CNN_VS>
1.3906737566

> <CNNaffinity_variance>
0.0863409117

$$$$



 34 37  0  0  0  0  0  0  0  0999 V2000
   11.0714    0.7127   62.8034 C   0  0  0  0  0  0  0  0  0  0  0  0
    9.1729   -1.1631   65.0476 C   0  0  0  0  0  0  0  0  0  0  0  0
    9.6210   -1.3748   62.9268 C   0  0  0  0  0  0  0  0  0  0  0  0
    9.9368   -0.1369   64.8117 N   0  0  0  0  0  0  0  0  0  0  0  0
    8.9372   -1.9539   63.9794 N   0  0  0  0  0  0  0  0  0  0  0  0
   10.2320   -0.2456   63.4823 N   0  0  0  0  0  0  0  0  0  0  0  0
    9.6849   -1.7560   61.7668 O   0  0  0  0  0  0  0  0  0  0  0  0
    9.5132   -2.3824   67.1697 C   0  0  0  0  0  0  0  0  0  0  0  0
    8.5919   -1.4694   66.3867 C   0  0  0  0  0  0  0  0  0  0  0  0
    8.1332   -3.1608   63.9433 C   0  0  0  0  0  0  0  0  0  0  0  0
    6.9075   -2.9304   63.0783 C   0  0  0  0  0  0  0  0  0  0  0  0
    5.7988   -2.6057   63.9072 O   0  0  0  0  0  0  0  0  0  0  0  0
    2.9496   -5.5822   64.4801 C   0  0  0  0  0  0  0  0  0  0  0  0
    3.3072   -4.7465   65.5380 C   0  0  0  0  0  0  0  0  0  0  0  0
    3.5478   -5.4204   63.2304 C   0  0  0  0  0  0  0  0  0  0  0  0
    4.2628   -3.7487   65.3463 C   0  0  0  0  0  0  0  0  0  0  0  0
    4.5035   -4.4226   63.0387 C   0  0  0  0  0  0  0  0  0  0  0  0
    4.8610   -3.5868   64.0965 C   0  0  0  0  0  0  0  0  0  0  0  0
   12.5247    0.2463   62.7808 C   0  0  0  0  0  0  0  0  0  0  0  0
   12.8482   -0.5777   61.5409 C   0  0  0  0  0  0  0  0  0  0  0  0
   12.9143    1.3305   58.2276 C   0  0  0  0  0  0  0  0  0  0  0  0
   15.2253    1.0708   59.0278 C   0  0  0  0  0  0  0  0  0  0  0  0
   12.4078    0.3207   59.2506 C   0  0  0  0  0  0  0  0  0  0  0  0
   14.7694    0.0552   60.0735 C   0  0  0  0  0  0  0  0  0  0  0  0
   14.3059    1.0275   57.8862 N   0  0  0  0  0  0  0  0  0  0  0  0
   13.3304    0.3411   60.4537 N   0  0  0  0  0  0  0  0  0  0  0  0
   13.2999    1.2961   60.8500 H   0  0  0  0  0  0  0  0  0  0  0  0
   16.2814   -0.1628   55.0102 C   0  0  0  0  0  0  0  0  0  0  0  0
   15.9310    0.5119   56.1797 C   0  0  0  0  0  0  0  0  0  0  0  0
   15.3552   -0.9944   54.3807 C   0  0  0  0  0  0  0  0  0  0  0  0
   13.7284   -0.4769   56.0904 C   0  0  0  0  0  0  0  0  0  0  0  0
   14.6546    0.3549   56.7198 C   0  0  0  0  0  0  0  0  0  0  0  0
   14.0788   -1.1515   54.9208 C   0  0  0  0  0  0  0  0  0  0  0  0
   12.9372   -2.1787   54.1441 Cl  0  0  0  0  0  0  0  0  0  0  0  0
 13 14  1  0  0  0
 13 15  2  0  0  0
 14 16  2  0  0  0
 15 17  1  0  0  0
 28 29  2  0  0  0
 28 30  1  0  0  0
 29 32  1  0  0  0
 16 18  1  0  0  0
 17 18  2  0  0  0
 30 33  2  0  0  0
 31 32  2  0  0  0
 31 33  1  0  0  0
 32 25  1  0  0  0
 18 12  1  0  0  0
 33 34  1  0  0  0
  2  9  1  0  0  0
  2  4  2  0  0  0
  2  5  1  0  0  0
  3  5  1  0  0  0
  3  6  1  0  0  0
  3  7  2  0  0  0
 21 23  1  0  0  0
 21 25  1  0  0  0
 22 24  1  0  0  0
 22 25  1  0  0  0
 23 26  1  0  0  0
 24 26  1  0  0  0
  8  9  1  0  0  0
 19  1  1  0  0  0
 19 20  1  0  0  0
  1  6  1  0  0  0
 10 11  1  0  0  0
 10  5  1  0  0  0
 20 26  1  0  0  0
 11 12  1  0  0  0
  4  6  1  0  0  0
 26 27  1  0  0  0
M  CHG 1  26   1
M  END
> <minimizedAffinity>
-8.43681

> <CNNscore>
0.7325803638

> <CNNaffinity>
7.1526870728

> <CNN_VS>
5.2399182320

> <CNNaffinity_variance>
0.0185376592

$$$$



 34 37  0  0  0  0  0  0  0  0999 V2000
   12.4398   -0.1302   57.2264 C   0  0  0  0  0  0  0  0  0  0  0  0
   14.6643    0.7923   54.7045 C   0  0  0  0  0  0  0  0  0  0  0  0
   14.9110   -0.2073   56.6236 C   0  0  0  0  0  0  0  0  0  0  0  0
   13.4478    0.7472   55.1633 N   0  0  0  0  0  0  0  0  0  0  0  0
   15.5967    0.2426   55.5109 N   0  0  0  0  0  0  0  0  0  0  0  0
   13.5754    0.1236   56.3720 N   0  0  0  0  0  0  0  0  0  0  0  0
   15.3610   -0.7702   57.6114 O   0  0  0  0  0  0  0  0  0  0  0  0
   13.8360    2.1017   52.7796 C   0  0  0  0  0  0  0  0  0  0  0  0
   15.0290    1.3948   53.3897 C   0  0  0  0  0  0  0  0  0  0  0  0
   17.0225    0.1446   55.2617 C   0  0  0  0  0  0  0  0  0  0  0  0
   17.7650    1.1121   56.1652 C   0  0  0  0  0  0  0  0  0  0  0  0
   19.1656    0.9518   55.9792 O   0  0  0  0  0  0  0  0  0  0  0  0
   20.9933   -2.1403   58.0778 C   0  0  0  0  0  0  0  0  0  0  0  0
   19.7605   -1.6438   58.5011 C   0  0  0  0  0  0  0  0  0  0  0  0
   21.6135   -1.5997   56.9514 C   0  0  0  0  0  0  0  0  0  0  0  0
   19.1477   -0.6067   57.7978 C   0  0  0  0  0  0  0  0  0  0  0  0
   21.0007   -0.5625   56.2482 C   0  0  0  0  0  0  0  0  0  0  0  0
   19.7679   -0.0660   56.6713 C   0  0  0  0  0  0  0  0  0  0  0  0
   11.8982    1.1698   57.8154 C   0  0  0  0  0  0  0  0  0  0  0  0
   12.7877    1.7164   58.9250 C   0  0  0  0  0  0  0  0  0  0  0  0
   11.9580    0.0688   62.2747 C   0  0  0  0  0  0  0  0  0  0  0  0
    9.9940    1.3429   61.5209 C   0  0  0  0  0  0  0  0  0  0  0  0
   12.6157    0.2028   60.9064 C   0  0  0  0  0  0  0  0  0  0  0  0
   10.6103    1.5088   60.1334 C   0  0  0  0  0  0  0  0  0  0  0  0
   10.5015    0.1069   62.1252 N   0  0  0  0  0  0  0  0  0  0  0  0
   12.1209    1.4773   60.2504 N   0  0  0  0  0  0  0  0  0  0  0  0
   12.3997    2.2659   60.8589 H   0  0  0  0  0  0  0  0  0  0  0  0
    8.4239   -2.6738   63.3668 C   0  0  0  0  0  0  0  0  0  0  0  0
    9.2050   -1.5183   63.3486 C   0  0  0  0  0  0  0  0  0  0  0  0
    8.1610   -3.3567   62.1793 C   0  0  0  0  0  0  0  0  0  0  0  0
    9.4601   -1.7285   60.9553 C   0  0  0  0  0  0  0  0  0  0  0  0
    9.7231   -1.0456   62.1429 C   0  0  0  0  0  0  0  0  0  0  0  0
    8.6790   -2.8840   60.9736 C   0  0  0  0  0  0  0  0  0  0  0  0
    8.3532   -3.7266   59.5087 Cl  0  0  0  0  0  0  0  0  0  0  0  0
 13 14  1  0  0  0
 13 15  2  0  0  0
 14 16  2  0  0  0
 15 17  1  0  0  0
 28 29  2  0  0  0
 28 30  1  0  0  0
 29 32  1  0  0  0
 16 18  1  0  0  0
 17 18  2  0  0  0
 30 33  2  0  0  0
 31 32  2  0  0  0
 31 33  1  0  0  0
 32 25  1  0  0  0
 18 12  1  0  0  0
 33 34  1  0  0  0
  2  9  1  0  0  0
  2  4  2  0  0  0
  2  5  1  0  0  0
  3  5  1  0  0  0
  3  6  1  0  0  0
  3  7  2  0  0  0
 21 23  1  0  0  0
 21 25  1  0  0  0
 22 24  1  0  0  0
 22 25  1  0  0  0
 23 26  1  0  0  0
 24 26  1  0  0  0
  8  9  1  0  0  0
 19  1  1  0  0  0
 19 20  1  0  0  0
  1  6  1  0  0  0
 10 11  1  0  0  0
 10  5  1  0  0  0
 20 26  1  0  0  0
 11 12  1  0  0  0
  4  6  1  0  0  0
 26 27  1  0  0  0
M  CHG 1  26   1
M  END
> <minimizedAffinity>
-10.19501

> <CNNscore>
0.6617967486

> <CNNaffinity>
7.1491613388

> <CNN_VS>
4.7312917709

> <CNNaffinity_variance>
0.3064574599

$$$$



 34 37  0  0  0  0  0  0  0  0999 V2000
   11.3102    0.2761   61.9887 C   0  0  0  0  0  0  0  0  0  0  0  0
    8.8998   -2.2435   61.9515 C   0  0  0  0  0  0  0  0  0  0  0  0
    9.7692   -1.0296   63.5370 C   0  0  0  0  0  0  0  0  0  0  0  0
    9.7412   -1.4892   61.3071 N   0  0  0  0  0  0  0  0  0  0  0  0
    8.8517   -2.0319   63.2838 N   0  0  0  0  0  0  0  0  0  0  0  0
   10.3035   -0.7160   62.2828 N   0  0  0  0  0  0  0  0  0  0  0  0
   10.0566   -0.5228   64.6121 O   0  0  0  0  0  0  0  0  0  0  0  0
    8.5520   -3.5816   59.9036 C   0  0  0  0  0  0  0  0  0  0  0  0
    8.0384   -3.2683   61.2940 C   0  0  0  0  0  0  0  0  0  0  0  0
    8.0115   -2.7148   64.2494 C   0  0  0  0  0  0  0  0  0  0  0  0
    6.8069   -1.8514   64.5769 C   0  0  0  0  0  0  0  0  0  0  0  0
    5.7421   -2.1707   63.6903 O   0  0  0  0  0  0  0  0  0  0  0  0
    3.4251   -5.4879   64.6564 C   0  0  0  0  0  0  0  0  0  0  0  0
    3.5714   -4.4483   65.5747 C   0  0  0  0  0  0  0  0  0  0  0  0
    4.0562   -5.4156   63.4145 C   0  0  0  0  0  0  0  0  0  0  0  0
    4.3486   -3.3361   65.2512 C   0  0  0  0  0  0  0  0  0  0  0  0
    4.8335   -4.3034   63.0910 C   0  0  0  0  0  0  0  0  0  0  0  0
    4.9797   -3.2637   64.0092 C   0  0  0  0  0  0  0  0  0  0  0  0
   12.3230   -0.2566   60.9785 C   0  0  0  0  0  0  0  0  0  0  0  0
   13.7242   -0.3648   61.5668 C   0  0  0  0  0  0  0  0  0  0  0  0
   15.0640    1.7327   58.6636 C   0  0  0  0  0  0  0  0  0  0  0  0
   16.6698   -0.0697   59.1338 C   0  0  0  0  0  0  0  0  0  0  0  0
   14.0079    1.0704   59.5404 C   0  0  0  0  0  0  0  0  0  0  0  0
   15.6487   -0.7727   60.0259 C   0  0  0  0  0  0  0  0  0  0  0  0
   15.9588    0.7108   58.1160 N   0  0  0  0  0  0  0  0  0  0  0  0
   14.7055    0.2576   60.6138 N   0  0  0  0  0  0  0  0  0  0  0  0
   15.2756    0.9128   61.1755 H   0  0  0  0  0  0  0  0  0  0  0  0
   16.5045    0.2804   54.4956 C   0  0  0  0  0  0  0  0  0  0  0  0
   16.6302    0.7593   55.7996 C   0  0  0  0  0  0  0  0  0  0  0  0
   15.5811   -0.7247   54.2078 C   0  0  0  0  0  0  0  0  0  0  0  0
   14.9094   -0.7721   56.5280 C   0  0  0  0  0  0  0  0  0  0  0  0
   15.8328    0.2331   56.8158 C   0  0  0  0  0  0  0  0  0  0  0  0
   14.7836   -1.2509   55.2240 C   0  0  0  0  0  0  0  0  0  0  0  0
   13.6455   -2.4918   54.8682 Cl  0  0  0  0  0  0  0  0  0  0  0  0
 13 14  1  0  0  0
 13 15  2  0  0  0
 14 16  2  0  0  0
 15 17  1  0  0  0
 28 29  2  0  0  0
 28 30  1  0  0  0
 29 32  1  0  0  0
 16 18  1  0  0  0
 17 18  2  0  0  0
 30 33  2  0  0  0
 31 32  2  0  0  0
 31 33  1  0  0  0
 32 25  1  0  0  0
 18 12  1  0  0  0
 33 34  1  0  0  0
  2  9  1  0  0  0
  2  4  2  0  0  0
  2  5  1  0  0  0
  3  5  1  0  0  0
  3  6  1  0  0  0
  3  7  2  0  0  0
 21 23  1  0  0  0
 21 25  1  0  0  0
 22 24  1  0  0  0
 22 25  1  0  0  0
 23 26  1  0  0  0
 24 26  1  0  0  0
  8  9  1  0  0  0
 19  1  1  0  0  0
 19 20  1  0  0  0
  1  6  1  0  0  0
 10 11  1  0  0  0
 10  5  1  0  0  0
 20 26  1  0  0  0
 11 12  1  0  0  0
  4  6  1  0  0  0
 26 27  1  0  0  0
M  CHG 1  26   1
M  END
> <minimizedAffinity>
-8.54307

> <CNNscore>
0.6380731463

> <CNNaffinity>
7.1288619041

> <CNN_VS>
4.5487351418

> <CNNaffinity_variance>
0.0470417105

$$$$



 34 37  0  0  0  0  0  0  0  0999 V2000
   13.1685   -0.1777   61.9602 C   0  0  0  0  0  0  0  0  0  0  0  0
   10.1133   -1.4832   60.9013 C   0  0  0  0  0  0  0  0  0  0  0  0
   11.8386   -0.6731   59.8477 C   0  0  0  0  0  0  0  0  0  0  0  0
   10.9213   -1.1701   61.8716 N   0  0  0  0  0  0  0  0  0  0  0  0
   10.5838   -1.2227   59.6633 N   0  0  0  0  0  0  0  0  0  0  0  0
   12.0154   -0.6562   61.2352 N   0  0  0  0  0  0  0  0  0  0  0  0
   12.6261   -0.2859   58.9961 O   0  0  0  0  0  0  0  0  0  0  0  0
    8.8835   -3.5844   61.3234 C   0  0  0  0  0  0  0  0  0  0  0  0
    8.7666   -2.0889   61.1114 C   0  0  0  0  0  0  0  0  0  0  0  0
    9.9119   -1.4684   58.4013 C   0  0  0  0  0  0  0  0  0  0  0  0
    9.6993   -0.1537   57.6733 C   0  0  0  0  0  0  0  0  0  0  0  0
    8.8755    0.6952   58.4623 O   0  0  0  0  0  0  0  0  0  0  0  0
   10.8061    3.6143   60.7112 C   0  0  0  0  0  0  0  0  0  0  0  0
    9.6553    3.0007   61.2059 C   0  0  0  0  0  0  0  0  0  0  0  0
   11.3091    3.2497   59.4623 C   0  0  0  0  0  0  0  0  0  0  0  0
    9.0076    2.0222   60.4518 C   0  0  0  0  0  0  0  0  0  0  0  0
   10.6613    2.2712   58.7082 C   0  0  0  0  0  0  0  0  0  0  0  0
    9.5106    1.6575   59.2029 C   0  0  0  0  0  0  0  0  0  0  0  0
   14.4570   -0.7523   61.3772 C   0  0  0  0  0  0  0  0  0  0  0  0
   15.5869    0.2694   61.3537 C   0  0  0  0  0  0  0  0  0  0  0  0
   16.5168    1.3500   57.8053 C   0  0  0  0  0  0  0  0  0  0  0  0
   16.8309   -1.0822   57.9908 C   0  0  0  0  0  0  0  0  0  0  0  0
   15.7570    1.3895   59.1259 C   0  0  0  0  0  0  0  0  0  0  0  0
   16.0793   -1.0971   59.3203 C   0  0  0  0  0  0  0  0  0  0  0  0
   16.3441    0.0376   57.1786 N   0  0  0  0  0  0  0  0  0  0  0  0
   16.2392    0.2480   59.9999 N   0  0  0  0  0  0  0  0  0  0  0  0
   17.2500    0.3918   60.1656 H   0  0  0  0  0  0  0  0  0  0  0  0
   13.8004   -1.5778   55.0549 C   0  0  0  0  0  0  0  0  0  0  0  0
   14.7062   -1.3619   56.0934 C   0  0  0  0  0  0  0  0  0  0  0  0
   13.6298   -0.6094   54.0656 C   0  0  0  0  0  0  0  0  0  0  0  0
   15.2706    0.7910   55.1534 C   0  0  0  0  0  0  0  0  0  0  0  0
   15.4413   -0.1775   56.1427 C   0  0  0  0  0  0  0  0  0  0  0  0
   14.3649    0.5750   54.1148 C   0  0  0  0  0  0  0  0  0  0  0  0
   14.1529    1.7697   52.8944 Cl  0  0  0  0  0  0  0  0  0  0  0  0
 13 14  1  0  0  0
 13 15  2  0  0  0
 14 16  2  0  0  0
 15 17  1  0  0  0
 28 29  2  0  0  0
 28 30  1  0  0  0
 29 32  1  0  0  0
 16 18  1  0  0  0
 17 18  2  0  0  0
 30 33  2  0  0  0
 31 32  2  0  0  0
 31 33  1  0  0  0
 32 25  1  0  0  0
 18 12  1  0  0  0
 33 34  1  0  0  0
  2  9  1  0  0  0
  2  4  2  0  0  0
  2  5  1  0  0  0
  3  5  1  0  0  0
  3  6  1  0  0  0
  3  7  2  0  0  0
 21 23  1  0  0  0
 21 25  1  0  0  0
 22 24  1  0  0  0
 22 25  1  0  0  0
 23 26  1  0  0  0
 24 26  1  0  0  0
  8  9  1  0  0  0
 19  1  1  0  0  0
 19 20  1  0  0  0
  1  6  1  0  0  0
 10 11  1  0  0  0
 10  5  1  0  0  0
 20 26  1  0  0  0
 11 12  1  0  0  0
  4  6  1  0  0  0
 26 27  1  0  0  0
M  CHG 1  26   1
M  END
> <minimizedAffinity>
-8.69501

> <CNNscore>
0.5900008082

> <CNNaffinity>
7.5975875854

> <CNN_VS>
4.4825830460

> <CNNaffinity_variance>
0.3371084034

$$$$



 34 37  0  0  0  0  0  0  0  0999 V2000
   11.4414    1.8396   57.9876 C   0  0  0  0  0  0  0  0  0  0  0  0
   14.1265    0.0164   59.2625 C   0  0  0  0  0  0  0  0  0  0  0  0
   13.5115    0.5591   57.2450 C   0  0  0  0  0  0  0  0  0  0  0  0
   13.0410    0.7031   59.4682 N   0  0  0  0  0  0  0  0  0  0  0  0
   14.4793   -0.1145   57.9663 N   0  0  0  0  0  0  0  0  0  0  0  0
   12.6324    1.0556   58.2132 N   0  0  0  0  0  0  0  0  0  0  0  0
   13.4323    0.6968   56.0326 O   0  0  0  0  0  0  0  0  0  0  0  0
   14.0720   -0.8958   61.5583 C   0  0  0  0  0  0  0  0  0  0  0  0
   14.9411   -0.5876   60.3563 C   0  0  0  0  0  0  0  0  0  0  0  0
   15.6344   -0.8165   57.4394 C   0  0  0  0  0  0  0  0  0  0  0  0
   16.8510    0.0892   57.4978 C   0  0  0  0  0  0  0  0  0  0  0  0
   17.8163   -0.4727   58.3777 O   0  0  0  0  0  0  0  0  0  0  0  0
   21.5096   -1.4475   56.7299 C   0  0  0  0  0  0  0  0  0  0  0  0
   21.1423   -1.9640   57.9725 C   0  0  0  0  0  0  0  0  0  0  0  0
   20.6389   -0.6038   56.0402 C   0  0  0  0  0  0  0  0  0  0  0  0
   19.9042   -1.6369   58.5254 C   0  0  0  0  0  0  0  0  0  0  0  0
   19.4007   -0.2766   56.5932 C   0  0  0  0  0  0  0  0  0  0  0  0
   19.0334   -0.7932   57.8357 C   0  0  0  0  0  0  0  0  0  0  0  0
   11.1701    2.7718   59.1655 C   0  0  0  0  0  0  0  0  0  0  0  0
    9.9747    2.3213   59.9958 C   0  0  0  0  0  0  0  0  0  0  0  0
    9.9998   -0.8027   62.2011 C   0  0  0  0  0  0  0  0  0  0  0  0
   11.3426    0.9412   63.2984 C   0  0  0  0  0  0  0  0  0  0  0  0
    9.4296    0.2072   61.2122 C   0  0  0  0  0  0  0  0  0  0  0  0
   10.8039    1.9923   62.3300 C   0  0  0  0  0  0  0  0  0  0  0  0
   10.3460   -0.1236   63.4516 N   0  0  0  0  0  0  0  0  0  0  0  0
   10.4374    1.3238   61.0202 N   0  0  0  0  0  0  0  0  0  0  0  0
   11.2998    0.8990   60.6386 H   0  0  0  0  0  0  0  0  0  0  0  0
    7.7168    0.7497   65.8837 C   0  0  0  0  0  0  0  0  0  0  0  0
    8.5396    0.7975   64.7585 C   0  0  0  0  0  0  0  0  0  0  0  0
    7.8804   -0.2668   66.8247 C   0  0  0  0  0  0  0  0  0  0  0  0
    9.6895   -1.1881   65.5150 C   0  0  0  0  0  0  0  0  0  0  0  0
    9.5260   -0.1714   64.5740 C   0  0  0  0  0  0  0  0  0  0  0  0
    8.8667   -1.2357   66.6403 C   0  0  0  0  0  0  0  0  0  0  0  0
    9.0671   -2.4903   67.8012 Cl  0  0  0  0  0  0  0  0  0  0  0  0
 13 14  1  0  0  0
 13 15  2  0  0  0
 14 16  2  0  0  0
 15 17  1  0  0  0
 28 29  2  0  0  0
 28 30  1  0  0  0
 29 32  1  0  0  0
 16 18  1  0  0  0
 17 18  2  0  0  0
 30 33  2  0  0  0
 31 32  2  0  0  0
 31 33  1  0  0  0
 32 25  1  0  0  0
 18 12  1  0  0  0
 33 34  1  0  0  0
  2  9  1  0  0  0
  2  4  2  0  0  0
  2  5  1  0  0  0
  3  5  1  0  0  0
  3  6  1  0  0  0
  3  7  2  0  0  0
 21 23  1  0  0  0
 21 25  1  0  0  0
 22 24  1  0  0  0
 22 25  1  0  0  0
 23 26  1  0  0  0
 24 26  1  0  0  0
  8  9  1  0  0  0
 19  1  1  0  0  0
 19 20  1  0  0  0
  1  6  1  0  0  0
 10 11  1  0  0  0
 10  5  1  0  0  0
 20 26  1  0  0  0
 11 12  1  0  0  0
  4  6  1  0  0  0
 26 27  1  0  0  0
M  CHG 1  26   1
M  END
> <minimizedAffinity>
-10.25379

> <CNNscore>
0.5479193330

> <CNNaffinity>
7.2052488327

> <CNN_VS>
3.9478950500

> <CNNaffinity_variance>
0.1422117054

$$$$



 34 37  0  0  0  0  0  0  0  0999 V2000
   14.9982    0.1974   60.3358 C   0  0  0  0  0  0  0  0  0  0  0  0
   14.9359   -0.4178   56.9040 C   0  0  0  0  0  0  0  0  0  0  0  0
   16.0391    0.9858   58.1514 C   0  0  0  0  0  0  0  0  0  0  0  0
   14.5070   -0.6979   58.0998 N   0  0  0  0  0  0  0  0  0  0  0  0
   15.8528    0.5710   56.8461 N   0  0  0  0  0  0  0  0  0  0  0  0
   15.1851    0.1732   58.9045 N   0  0  0  0  0  0  0  0  0  0  0  0
   16.7817    1.8643   58.5660 O   0  0  0  0  0  0  0  0  0  0  0  0
   12.9748   -1.3537   55.7276 C   0  0  0  0  0  0  0  0  0  0  0  0
   14.4710   -1.1221   55.6741 C   0  0  0  0  0  0  0  0  0  0  0  0
   16.5069    1.0908   55.6600 C   0  0  0  0  0  0  0  0  0  0  0  0
   17.6838    0.2035   55.2975 C   0  0  0  0  0  0  0  0  0  0  0  0
   18.8554    0.6862   55.9427 O   0  0  0  0  0  0  0  0  0  0  0  0
   21.1056   -2.0965   58.0639 C   0  0  0  0  0  0  0  0  0  0  0  0
   19.8756   -1.6682   58.5631 C   0  0  0  0  0  0  0  0  0  0  0  0
   21.5814   -1.5912   56.8538 C   0  0  0  0  0  0  0  0  0  0  0  0
   19.1212   -0.7348   57.8523 C   0  0  0  0  0  0  0  0  0  0  0  0
   20.8269   -0.6578   56.1430 C   0  0  0  0  0  0  0  0  0  0  0  0
   19.5969   -0.2296   56.6422 C   0  0  0  0  0  0  0  0  0  0  0  0
   13.6318   -0.3659   60.7177 C   0  0  0  0  0  0  0  0  0  0  0  0
   12.4860    0.4677   60.1580 C   0  0  0  0  0  0  0  0  0  0  0  0
   11.1824    0.9663   63.7183 C   0  0  0  0  0  0  0  0  0  0  0  0
    9.4549    1.7214   62.1389 C   0  0  0  0  0  0  0  0  0  0  0  0
   11.9665    0.2956   62.5966 C   0  0  0  0  0  0  0  0  0  0  0  0
   10.2035    1.0689   60.9785 C   0  0  0  0  0  0  0  0  0  0  0  0
    9.7589    0.9925   63.3745 N   0  0  0  0  0  0  0  0  0  0  0  0
   11.6841    1.0276   61.2991 N   0  0  0  0  0  0  0  0  0  0  0  0
   12.0008    2.0048   61.4207 H   0  0  0  0  0  0  0  0  0  0  0  0
    6.9629   -0.4064   65.3279 C   0  0  0  0  0  0  0  0  0  0  0  0
    7.8738    0.5083   64.7996 C   0  0  0  0  0  0  0  0  0  0  0  0
    7.0293   -1.7497   64.9580 C   0  0  0  0  0  0  0  0  0  0  0  0
    8.9175   -1.2635   63.5313 C   0  0  0  0  0  0  0  0  0  0  0  0
    8.8511    0.0799   63.9013 C   0  0  0  0  0  0  0  0  0  0  0  0
    8.0066   -2.1782   64.0597 C   0  0  0  0  0  0  0  0  0  0  0  0
    8.0872   -3.8355   63.6029 Cl  0  0  0  0  0  0  0  0  0  0  0  0
 13 14  1  0  0  0
 13 15  2  0  0  0
 14 16  2  0  0  0
 15 17  1  0  0  0
 28 29  2  0  0  0
 28 30  1  0  0  0
 29 32  1  0  0  0
 16 18  1  0  0  0
 17 18  2  0  0  0
 30 33  2  0  0  0
 31 32  2  0  0  0
 31 33  1  0  0  0
 32 25  1  0  0  0
 18 12  1  0  0  0
 33 34  1  0  0  0
  2  9  1  0  0  0
  2  4  2  0  0  0
  2  5  1  0  0  0
  3  5  1  0  0  0
  3  6  1  0  0  0
  3  7  2  0  0  0
 21 23  1  0  0  0
 21 25  1  0  0  0
 22 24  1  0  0  0
 22 25  1  0  0  0
 23 26  1  0  0  0
 24 26  1  0  0  0
  8  9  1  0  0  0
 19  1  1  0  0  0
 19 20  1  0  0  0
  1  6  1  0  0  0
 10 11  1  0  0  0
 10  5  1  0  0  0
 20 26  1  0  0  0
 11 12  1  0  0  0
  4  6  1  0  0  0
 26 27  1  0  0  0
M  CHG 1  26   1
M  END
> <minimizedAffinity>
-9.97702

> <CNNscore>
0.5360581875

> <CNNaffinity>
7.2363600731

> <CNN_VS>
3.8791100979

> <CNNaffinity_variance>
0.0695557445

$$$$



 34 37  0  0  0  0  0  0  0  0999 V2000
   16.1898    0.0812   60.6628 C   0  0  0  0  0  0  0  0  0  0  0  0
   18.4249   -0.4915   58.0482 C   0  0  0  0  0  0  0  0  0  0  0  0
   16.6511    0.7556   58.2526 C   0  0  0  0  0  0  0  0  0  0  0  0
   18.0490   -0.7251   59.2715 N   0  0  0  0  0  0  0  0  0  0  0  0
   17.6487    0.3815   57.3719 N   0  0  0  0  0  0  0  0  0  0  0  0
   16.9327    0.0470   59.4254 N   0  0  0  0  0  0  0  0  0  0  0  0
   15.7258    1.5315   58.0603 O   0  0  0  0  0  0  0  0  0  0  0  0
   20.5917   -1.5990   58.4770 C   0  0  0  0  0  0  0  0  0  0  0  0
   19.6200   -1.1221   57.4169 C   0  0  0  0  0  0  0  0  0  0  0  0
   17.8247    0.8333   56.0047 C   0  0  0  0  0  0  0  0  0  0  0  0
   16.9430    0.0139   55.0801 C   0  0  0  0  0  0  0  0  0  0  0  0
   15.7552    0.7409   54.7932 O   0  0  0  0  0  0  0  0  0  0  0  0
   12.2202   -1.4428   54.5894 C   0  0  0  0  0  0  0  0  0  0  0  0
   12.9721   -1.4414   55.7643 C   0  0  0  0  0  0  0  0  0  0  0  0
   12.6539   -0.7126   53.4828 C   0  0  0  0  0  0  0  0  0  0  0  0
   14.1576   -0.7096   55.8327 C   0  0  0  0  0  0  0  0  0  0  0  0
   13.8395    0.0191   53.5512 C   0  0  0  0  0  0  0  0  0  0  0  0
   14.5914    0.0207   54.7261 C   0  0  0  0  0  0  0  0  0  0  0  0
   14.8743   -0.6819   60.5312 C   0  0  0  0  0  0  0  0  0  0  0  0
   13.9264   -0.4043   61.6911 C   0  0  0  0  0  0  0  0  0  0  0  0
   10.1982    0.2234   61.1167 C   0  0  0  0  0  0  0  0  0  0  0  0
   11.4444    1.0806   59.1775 C   0  0  0  0  0  0  0  0  0  0  0  0
   11.4302   -0.5129   61.6292 C   0  0  0  0  0  0  0  0  0  0  0  0
   12.7084    0.3646   59.6491 C   0  0  0  0  0  0  0  0  0  0  0  0
   10.2704    0.3457   59.6590 N   0  0  0  0  0  0  0  0  0  0  0  0
   12.6693    0.2230   61.1575 N   0  0  0  0  0  0  0  0  0  0  0  0
   12.6324    1.1767   61.5560 H   0  0  0  0  0  0  0  0  0  0  0  0
    9.1507   -1.3645   56.5912 C   0  0  0  0  0  0  0  0  0  0  0  0
    9.8610   -0.5212   57.4455 C   0  0  0  0  0  0  0  0  0  0  0  0
    8.1407   -2.1817   57.0989 C   0  0  0  0  0  0  0  0  0  0  0  0
    8.5515   -1.3124   59.3153 C   0  0  0  0  0  0  0  0  0  0  0  0
    9.5615   -0.4951   58.8075 C   0  0  0  0  0  0  0  0  0  0  0  0
    7.8412   -2.1556   58.4610 C   0  0  0  0  0  0  0  0  0  0  0  0
    6.5957   -3.1650   59.0868 Cl  0  0  0  0  0  0  0  0  0  0  0  0
 13 14  1  0  0  0
 13 15  2  0  0  0
 14 16  2  0  0  0
 15 17  1  0  0  0
 28 29  2  0  0  0
 28 30  1  0  0  0
 29 32  1  0  0  0
 16 18  1  0  0  0
 17 18  2  0  0  0
 30 33  2  0  0  0
 31 32  2  0  0  0
 31 33  1  0  0  0
 32 25  1  0  0  0
 18 12  1  0  0  0
 33 34  1  0  0  0
  2  9  1  0  0  0
  2  4  2  0  0  0
  2  5  1  0  0  0
  3  5  1  0  0  0
  3  6  1  0  0  0
  3  7  2  0  0  0
 21 23  1  0  0  0
 21 25  1  0  0  0
 22 24  1  0  0  0
 22 25  1  0  0  0
 23 26  1  0  0  0
 24 26  1  0  0  0
  8  9  1  0  0  0
 19  1  1  0  0  0
 19 20  1  0  0  0
  1  6  1  0  0  0
 10 11  1  0  0  0
 10  5  1  0  0  0
 20 26  1  0  0  0
 11 12  1  0  0  0
  4  6  1  0  0  0
 26 27  1  0  0  0
M  CHG 1  26   1
M  END
> <minimizedAffinity>
-8.87011

> <CNNscore>
0.5285251141

> <CNNaffinity>
7.3872847557

> <CNN_VS>
3.9043655396

> <CNNaffinity_variance>
0.4472289085

$$$$



 34 37  0  0  0  0  0  0  0  0999 V2000
   11.1452    0.1134   63.1403 C   0  0  0  0  0  0  0  0  0  0  0  0
    8.5140   -2.1697   63.2959 C   0  0  0  0  0  0  0  0  0  0  0  0
    9.0578   -0.4316   64.4902 C   0  0  0  0  0  0  0  0  0  0  0  0
    9.6024   -1.7531   62.7177 N   0  0  0  0  0  0  0  0  0  0  0  0
    8.1183   -1.4369   64.3581 N   0  0  0  0  0  0  0  0  0  0  0  0
    9.9665   -0.6599   63.4515 N   0  0  0  0  0  0  0  0  0  0  0  0
    9.0952    0.4622   65.3238 O   0  0  0  0  0  0  0  0  0  0  0  0
    7.7455   -3.4489   61.3264 C   0  0  0  0  0  0  0  0  0  0  0  0
    7.7400   -3.3599   62.8388 C   0  0  0  0  0  0  0  0  0  0  0  0
    6.9497   -1.6584   65.1886 C   0  0  0  0  0  0  0  0  0  0  0  0
    5.7268   -1.0609   64.5168 C   0  0  0  0  0  0  0  0  0  0  0  0
    4.5544   -1.6701   65.0422 O   0  0  0  0  0  0  0  0  0  0  0  0
    3.7031   -5.5278   63.7383 C   0  0  0  0  0  0  0  0  0  0  0  0
    3.9969   -4.5276   62.8116 C   0  0  0  0  0  0  0  0  0  0  0  0
    3.6940   -5.2344   65.1020 C   0  0  0  0  0  0  0  0  0  0  0  0
    4.2819   -3.2339   63.2486 C   0  0  0  0  0  0  0  0  0  0  0  0
    3.9790   -3.9407   65.5389 C   0  0  0  0  0  0  0  0  0  0  0  0
    4.2730   -2.9405   64.6123 C   0  0  0  0  0  0  0  0  0  0  0  0
   11.4115    0.1218   61.6373 C   0  0  0  0  0  0  0  0  0  0  0  0
   12.6803   -0.6378   61.2708 C   0  0  0  0  0  0  0  0  0  0  0  0
   14.1461    1.8442   58.7579 C   0  0  0  0  0  0  0  0  0  0  0  0
   15.9987    0.7471   59.9466 C   0  0  0  0  0  0  0  0  0  0  0  0
   13.1476    0.8297   59.3024 C   0  0  0  0  0  0  0  0  0  0  0  0
   15.0392   -0.2927   60.5218 C   0  0  0  0  0  0  0  0  0  0  0  0
   15.4714    1.2277   58.6654 N   0  0  0  0  0  0  0  0  0  0  0  0
   13.6547    0.3133   60.6349 N   0  0  0  0  0  0  0  0  0  0  0  0
   13.7240    1.1238   61.2738 H   0  0  0  0  0  0  0  0  0  0  0  0
   15.6430   -0.1074   55.2334 C   0  0  0  0  0  0  0  0  0  0  0  0
   15.1253    0.3663   56.4389 C   0  0  0  0  0  0  0  0  0  0  0  0
   17.0234   -0.1924   55.0527 C   0  0  0  0  0  0  0  0  0  0  0  0
   17.3686    0.6701   57.2829 C   0  0  0  0  0  0  0  0  0  0  0  0
   15.9880    0.7551   57.4637 C   0  0  0  0  0  0  0  0  0  0  0  0
   17.8862    0.1963   56.0774 C   0  0  0  0  0  0  0  0  0  0  0  0
   19.5894    0.0921   55.8531 Cl  0  0  0  0  0  0  0  0  0  0  0  0
 13 14  1  0  0  0
 13 15  2  0  0  0
 14 16  2  0  0  0
 15 17  1  0  0  0
 28 29  2  0  0  0
 28 30  1  0  0  0
 29 32  1  0  0  0
 16 18  1  0  0  0
 17 18  2  0  0  0
 30 33  2  0  0  0
 31 32  2  0  0  0
 31 33  1  0  0  0
 32 25  1  0  0  0
 18 12  1  0  0  0
 33 34  1  0  0  0
  2  9  1  0  0  0
  2  4  2  0  0  0
  2  5  1  0  0  0
  3  5  1  0  0  0
  3  6  1  0  0  0
  3  7  2  0  0  0
 21 23  1  0  0  0
 21 25  1  0  0  0
 22 24  1  0  0  0
 22 25  1  0  0  0
 23 26  1  0  0  0
 24 26  1  0  0  0
  8  9  1  0  0  0
 19  1  1  0  0  0
 19 20  1  0  0  0
  1  6  1  0  0  0
 10 11  1  0  0  0
 10  5  1  0  0  0
 20 26  1  0  0  0
 11 12  1  0  0  0
  4  6  1  0  0  0
 26 27  1  0  0  0
M  CHG 1  26   1
M  END
> <minimizedAffinity>
-8.20634

> <CNNscore>
0.4819467664

> <CNNaffinity>
6.7943558693

> <CNN_VS>
3.2745177746

> <CNNaffinity_variance>
0.0486600995

$$$$



 34 37  0  0  0  0  0  0  0  0999 V2000
   12.2731   -0.5111   56.7656 C   0  0  0  0  0  0  0  0  0  0  0  0
   14.5255    0.7608   54.4271 C   0  0  0  0  0  0  0  0  0  0  0  0
   14.7620   -0.4179   56.2431 C   0  0  0  0  0  0  0  0  0  0  0  0
   13.2994    0.6159   54.8371 N   0  0  0  0  0  0  0  0  0  0  0  0
   15.4584    0.1730   55.2055 N   0  0  0  0  0  0  0  0  0  0  0  0
   13.4203   -0.1218   55.9805 N   0  0  0  0  0  0  0  0  0  0  0  0
   15.2085   -1.0586   57.1840 O   0  0  0  0  0  0  0  0  0  0  0  0
   13.8992    2.6128   52.9159 C   0  0  0  0  0  0  0  0  0  0  0  0
   14.9002    1.5099   53.1929 C   0  0  0  0  0  0  0  0  0  0  0  0
   16.8940    0.1634   54.9966 C   0  0  0  0  0  0  0  0  0  0  0  0
   17.5644    1.0538   56.0269 C   0  0  0  0  0  0  0  0  0  0  0  0
   18.9762    0.9495   55.8942 O   0  0  0  0  0  0  0  0  0  0  0  0
   20.8530   -2.0268   58.1135 C   0  0  0  0  0  0  0  0  0  0  0  0
   21.4731   -1.5093   56.9764 C   0  0  0  0  0  0  0  0  0  0  0  0
   19.6034   -1.5470   58.5062 C   0  0  0  0  0  0  0  0  0  0  0  0
   20.8438   -0.5116   56.2318 C   0  0  0  0  0  0  0  0  0  0  0  0
   18.9741   -0.5494   57.7615 C   0  0  0  0  0  0  0  0  0  0  0  0
   19.5942   -0.0317   56.6244 C   0  0  0  0  0  0  0  0  0  0  0  0
   12.3588    0.0607   58.1784 C   0  0  0  0  0  0  0  0  0  0  0  0
   11.1273   -0.2707   59.0119 C   0  0  0  0  0  0  0  0  0  0  0  0
   11.8673    0.2938   62.7210 C   0  0  0  0  0  0  0  0  0  0  0  0
   10.1237    1.8803   62.0201 C   0  0  0  0  0  0  0  0  0  0  0  0
   11.7131   -0.5023   61.4305 C   0  0  0  0  0  0  0  0  0  0  0  0
    9.9320    1.1201   60.7093 C   0  0  0  0  0  0  0  0  0  0  0  0
   10.5989    0.9488   63.0482 N   0  0  0  0  0  0  0  0  0  0  0  0
   11.2292    0.4304   60.3373 N   0  0  0  0  0  0  0  0  0  0  0  0
   11.9468    1.1659   60.2190 H   0  0  0  0  0  0  0  0  0  0  0  0
    7.5694    0.4707   65.0936 C   0  0  0  0  0  0  0  0  0  0  0  0
    8.4467    0.9818   64.1372 C   0  0  0  0  0  0  0  0  0  0  0  0
    7.9700   -0.5829   65.9152 C   0  0  0  0  0  0  0  0  0  0  0  0
   10.1252   -0.6146   64.8238 C   0  0  0  0  0  0  0  0  0  0  0  0
    9.7246    0.4392   64.0023 C   0  0  0  0  0  0  0  0  0  0  0  0
    9.2478   -1.1256   65.7803 C   0  0  0  0  0  0  0  0  0  0  0  0
    9.7408   -2.4263   66.7936 Cl  0  0  0  0  0  0  0  0  0  0  0  0
 13 14  1  0  0  0
 13 15  2  0  0  0
 14 16  2  0  0  0
 15 17  1  0  0  0
 28 29  2  0  0  0
 28 30  1  0  0  0
 29 32  1  0  0  0
 16 18  1  0  0  0
 17 18  2  0  0  0
 30 33  2  0  0  0
 31 32  2  0  0  0
 31 33  1  0  0  0
 32 25  1  0  0  0
 18 12  1  0  0  0
 33 34  1  0  0  0
  2  9  1  0  0  0
  2  4  2  0  0  0
  2  5  1  0  0  0
  3  5  1  0  0  0
  3  6  1  0  0  0
  3  7  2  0  0  0
 21 23  1  0  0  0
 21 25  1  0  0  0
 22 24  1  0  0  0
 22 25  1  0  0  0
 23 26  1  0  0  0
 24 26  1  0  0  0
  8  9  1  0  0  0
 19  1  1  0  0  0
 19 20  1  0  0  0
  1  6  1  0  0  0
 10 11  1  0  0  0
 10  5  1  0  0  0
 20 26  1  0  0  0
 11 12  1  0  0  0
  4  6  1  0  0  0
 26 27  1  0  0  0
M  CHG 1  26   1
M  END
> <minimizedAffinity>
-10.28448

> <CNNscore>
0.4758823514

> <CNNaffinity>
6.9090714455

> <CNN_VS>
3.2879052162

> <CNNaffinity_variance>
0.2176389694

$$$$



 26 29  0  0  0  0  0  0  0  0999 V2000
   19.5611   -1.5190   58.9677 C   0  0  0  0  0  0  0  0  0  0  0  0
   20.5235   -0.9860   58.1238 C   0  0  0  0  0  0  0  0  0  0  0  0
   18.2052   -1.3083   58.7022 C   0  0  0  0  0  0  0  0  0  0  0  0
   20.1280   -0.2489   57.0127 C   0  0  0  0  0  0  0  0  0  0  0  0
   16.1268    0.8474   53.7729 C   0  0  0  0  0  0  0  0  0  0  0  0
   14.7922    0.5845   53.4831 C   0  0  0  0  0  0  0  0  0  0  0  0
   14.5097   -0.2964   55.7095 C   0  0  0  0  0  0  0  0  0  0  0  0
   17.7692   -0.5551   57.5903 C   0  0  0  0  0  0  0  0  0  0  0  0
   15.8565   -0.0315   56.0413 C   0  0  0  0  0  0  0  0  0  0  0  0
   18.7650   -0.0381   56.7379 C   0  0  0  0  0  0  0  0  0  0  0  0
   16.6627    0.5374   55.0355 C   0  0  0  0  0  0  0  0  0  0  0  0
   13.9836    0.0090   54.4513 C   0  0  0  0  0  0  0  0  0  0  0  0
   16.3934   -0.3523   57.3136 N   0  0  0  0  0  0  0  0  0  0  0  0
   18.3780    0.9405   55.3002 S   0  0  0  0  0  0  0  0  0  0  0  0
   12.2489   -2.1132   54.4661 C   0  0  0  0  0  0  0  0  0  0  0  0
   12.2754   -0.3477   54.0865 S   0  0  0  0  0  0  0  0  0  0  0  0
   15.4447   -0.5593   58.4155 C   0  0  0  0  0  0  0  0  0  0  0  0
   14.4844    0.6122   58.5825 C   0  0  0  0  0  0  0  0  0  0  0  0
   11.5865    1.0555   57.3123 C   0  0  0  0  0  0  0  0  0  0  0  0
   11.0554    2.1198   58.2640 C   0  0  0  0  0  0  0  0  0  0  0  0
   12.1046   -0.1614   58.0719 C   0  0  0  0  0  0  0  0  0  0  0  0
   12.0857    2.5082   59.3129 C   0  0  0  0  0  0  0  0  0  0  0  0
   13.1308    0.1896   59.1527 C   0  0  0  0  0  0  0  0  0  0  0  0
   11.6143    0.7832   61.0831 C   0  0  0  0  0  0  0  0  0  0  0  0
   12.5943    1.2925   60.0550 N   0  0  0  0  0  0  0  0  0  0  0  0
   13.4287    1.6233   60.6225 H   0  0  0  0  0  0  0  0  0  0  0  0
  1  2  1  0  0  0
  1  3  2  0  0  0
  2  4  2  0  0  0
  3  8  1  0  0  0
  4 10  1  0  0  0
  5  6  2  0  0  0
  5 11  1  0  0  0
  6 12  1  0  0  0
  7  9  1  0  0  0
  7 12  2  0  0  0
  8 10  2  0  0  0
  8 13  1  0  0  0
  9 11  2  0  0  0
  9 13  1  0  0  0
 10 14  1  0  0  0
 11 14  1  0  0  0
 12 16  1  0  0  0
 19 20  1  0  0  0
 19 21  1  0  0  0
 20 22  1  0  0  0
 21 23  1  0  0  0
 22 25  1  0  0  0
 23 18  1  0  0  0
 23 25  1  0  0  0
 24 25  1  0  0  0
 15 16  1  0  0  0
 18 17  1  0  0  0
 17 13  1  0  0  0
 25 26  1  0  0  0
M  CHG 1  25   1
M  END
> <minimizedAffinity>
-7.35709

> <CNNscore>
0.5405741930

> <CNNaffinity>
7.0924224854

> <CNN_VS>
3.8339805603

> <CNNaffinity_variance>
0.1455685794

$$$$



 26 29  0  0  0  0  0  0  0  0999 V2000
    3.4670   -3.8643   65.2748 C   0  0  0  0  0  0  0  0  0  0  0  0
    2.4919   -4.5161   64.5352 C   0  0  0  0  0  0  0  0  0  0  0  0
    4.7143   -3.5967   64.7040 C   0  0  0  0  0  0  0  0  0  0  0  0
    2.7640   -4.8931   63.2243 C   0  0  0  0  0  0  0  0  0  0  0  0
    5.9324   -4.1263   59.0915 C   0  0  0  0  0  0  0  0  0  0  0  0
    7.0305   -3.4180   58.6151 C   0  0  0  0  0  0  0  0  0  0  0  0
    7.6404   -2.8879   60.8867 C   0  0  0  0  0  0  0  0  0  0  0  0
    5.0280   -3.9760   63.3805 C   0  0  0  0  0  0  0  0  0  0  0  0
    6.5424   -3.6090   61.4048 C   0  0  0  0  0  0  0  0  0  0  0  0
    4.0156   -4.6216   62.6434 C   0  0  0  0  0  0  0  0  0  0  0  0
    5.6801   -4.2183   60.4718 C   0  0  0  0  0  0  0  0  0  0  0  0
    7.8836   -2.7953   59.5135 C   0  0  0  0  0  0  0  0  0  0  0  0
    6.2889   -3.6928   62.7972 N   0  0  0  0  0  0  0  0  0  0  0  0
    4.2580   -5.1712   60.9659 S   0  0  0  0  0  0  0  0  0  0  0  0
    9.9012   -1.2109   60.4789 C   0  0  0  0  0  0  0  0  0  0  0  0
    9.2854   -1.8709   58.9146 S   0  0  0  0  0  0  0  0  0  0  0  0
    7.4028   -3.3945   63.7067 C   0  0  0  0  0  0  0  0  0  0  0  0
    7.2881   -2.0085   64.3300 C   0  0  0  0  0  0  0  0  0  0  0  0
    7.8158    0.0177   66.7431 C   0  0  0  0  0  0  0  0  0  0  0  0
    8.2337    1.2494   65.9501 C   0  0  0  0  0  0  0  0  0  0  0  0
    8.6359   -1.2050   66.3450 C   0  0  0  0  0  0  0  0  0  0  0  0
    8.1836    1.0024   64.4504 C   0  0  0  0  0  0  0  0  0  0  0  0
    8.6277   -1.4766   64.8382 C   0  0  0  0  0  0  0  0  0  0  0  0
   10.4813    0.0533   64.0622 C   0  0  0  0  0  0  0  0  0  0  0  0
    8.9964   -0.2148   64.0700 N   0  0  0  0  0  0  0  0  0  0  0  0
    8.7573   -0.4219   63.0562 H   0  0  0  0  0  0  0  0  0  0  0  0
  1  2  1  0  0  0
  1  3  2  0  0  0
  2  4  2  0  0  0
  3  8  1  0  0  0
  4 10  1  0  0  0
  5  6  2  0  0  0
  5 11  1  0  0  0
  6 12  1  0  0  0
  7  9  1  0  0  0
  7 12  2  0  0  0
  8 10  2  0  0  0
  8 13  1  0  0  0
  9 11  2  0  0  0
  9 13  1  0  0  0
 10 14  1  0  0  0
 11 14  1  0  0  0
 12 16  1  0  0  0
 19 20  1  0  0  0
 19 21  1  0  0  0
 20 22  1  0  0  0
 21 23  1  0  0  0
 22 25  1  0  0  0
 23 18  1  0  0  0
 23 25  1  0  0  0
 24 25  1  0  0  0
 15 16  1  0  0  0
 18 17  1  0  0  0
 17 13  1  0  0  0
 25 26  1  0  0  0
M  CHG 1  25   1
M  END
> <minimizedAffinity>
-7.25190

> <CNNscore>
0.5350915194

> <CNNaffinity>
6.4493875504

> <CNN_VS>
3.4510126114

> <CNNaffinity_variance>
0.1720669568

$$$$



 26 29  0  0  0  0  0  0  0  0999 V2000
   10.0352    3.4276   60.7022 C   0  0  0  0  0  0  0  0  0  0  0  0
    8.8547    2.7013   60.7399 C   0  0  0  0  0  0  0  0  0  0  0  0
   11.0913    3.0026   59.8915 C   0  0  0  0  0  0  0  0  0  0  0  0
    8.7304    1.5552   59.9619 C   0  0  0  0  0  0  0  0  0  0  0  0
   10.6791   -1.0921   55.8507 C   0  0  0  0  0  0  0  0  0  0  0  0
   11.6461   -1.0909   54.8510 C   0  0  0  0  0  0  0  0  0  0  0  0
   12.8909    0.5579   56.0939 C   0  0  0  0  0  0  0  0  0  0  0  0
   11.0033    1.8375   59.0986 C   0  0  0  0  0  0  0  0  0  0  0  0
   11.9347    0.5724   57.1329 C   0  0  0  0  0  0  0  0  0  0  0  0
    9.7880    1.1258   59.1404 C   0  0  0  0  0  0  0  0  0  0  0  0
   10.8117   -0.2648   56.9800 C   0  0  0  0  0  0  0  0  0  0  0  0
   12.7515   -0.2626   54.9711 C   0  0  0  0  0  0  0  0  0  0  0  0
   12.0700    1.4136   58.2661 N   0  0  0  0  0  0  0  0  0  0  0  0
    9.5233   -0.3681   58.2063 S   0  0  0  0  0  0  0  0  0  0  0  0
   14.8918   -1.7456   54.1149 C   0  0  0  0  0  0  0  0  0  0  0  0
   13.9898   -0.2401   53.6887 S   0  0  0  0  0  0  0  0  0  0  0  0
   13.4080    1.9432   58.5595 C   0  0  0  0  0  0  0  0  0  0  0  0
   14.3038    0.9139   59.2382 C   0  0  0  0  0  0  0  0  0  0  0  0
   15.1132   -1.3915   61.2966 C   0  0  0  0  0  0  0  0  0  0  0  0
   13.7235   -1.8705   61.6964 C   0  0  0  0  0  0  0  0  0  0  0  0
   15.2533    0.1171   61.4712 C   0  0  0  0  0  0  0  0  0  0  0  0
   12.6290   -1.1149   60.9590 C   0  0  0  0  0  0  0  0  0  0  0  0
   14.1570    0.9147   60.7595 C   0  0  0  0  0  0  0  0  0  0  0  0
   12.3184    0.8576   62.4900 C   0  0  0  0  0  0  0  0  0  0  0  0
   12.7824    0.3792   61.1363 N   0  0  0  0  0  0  0  0  0  0  0  0
   12.1074    0.8267   60.4493 H   0  0  0  0  0  0  0  0  0  0  0  0
  1  2  1  0  0  0
  1  3  2  0  0  0
  2  4  2  0  0  0
  3  8  1  0  0  0
  4 10  1  0  0  0
  5  6  2  0  0  0
  5 11  1  0  0  0
  6 12  1  0  0  0
  7  9  1  0  0  0
  7 12  2  0  0  0
  8 10  2  0  0  0
  8 13  1  0  0  0
  9 11  2  0  0  0
  9 13  1  0  0  0
 10 14  1  0  0  0
 11 14  1  0  0  0
 12 16  1  0  0  0
 19 20  1  0  0  0
 19 21  1  0  0  0
 20 22  1  0  0  0
 21 23  1  0  0  0
 22 25  1  0  0  0
 23 18  1  0  0  0
 23 25  1  0  0  0
 24 25  1  0  0  0
 15 16  1  0  0  0
 18 17  1  0  0  0
 17 13  1  0  0  0
 25 26  1  0  0  0
M  CHG 1  25   1
M  END
> <minimizedAffinity>
-4.77126

> <CNNscore>
0.4040771127

> <CNNaffinity>
6.5804328918

> <CNN_VS>
2.6590023041

> <CNNaffinity_variance>
0.1820662022

$$$$



 26 29  0  0  0  0  0  0  0  0999 V2000
    6.8177   -2.9769   58.4012 C   0  0  0  0  0  0  0  0  0  0  0  0
    7.6896   -2.1484   57.7112 C   0  0  0  0  0  0  0  0  0  0  0  0
    6.9947   -3.1914   59.7709 C   0  0  0  0  0  0  0  0  0  0  0  0
    8.7325   -1.5311   58.3935 C   0  0  0  0  0  0  0  0  0  0  0  0
   10.5545   -0.1438   63.1331 C   0  0  0  0  0  0  0  0  0  0  0  0
   10.2996   -0.1613   64.5003 C   0  0  0  0  0  0  0  0  0  0  0  0
    8.6770   -1.9095   64.1485 C   0  0  0  0  0  0  0  0  0  0  0  0
    8.0496   -2.5904   60.4918 C   0  0  0  0  0  0  0  0  0  0  0  0
    8.9202   -1.9268   62.7575 C   0  0  0  0  0  0  0  0  0  0  0  0
    8.9121   -1.7394   59.7727 C   0  0  0  0  0  0  0  0  0  0  0  0
    9.8690   -1.0101   62.2630 C   0  0  0  0  0  0  0  0  0  0  0  0
    9.3574   -1.0427   65.0081 C   0  0  0  0  0  0  0  0  0  0  0  0
    8.2213   -2.7977   61.8839 N   0  0  0  0  0  0  0  0  0  0  0  0
   10.2952   -0.9149   60.5356 S   0  0  0  0  0  0  0  0  0  0  0  0
    7.7237    0.2026   66.8229 C   0  0  0  0  0  0  0  0  0  0  0  0
    9.0101   -1.0634   66.7566 S   0  0  0  0  0  0  0  0  0  0  0  0
    7.5650   -3.9691   62.4789 C   0  0  0  0  0  0  0  0  0  0  0  0
    6.2033   -3.6316   63.0743 C   0  0  0  0  0  0  0  0  0  0  0  0
    3.8498   -4.9231   61.3422 C   0  0  0  0  0  0  0  0  0  0  0  0
    2.6610   -4.5576   62.2219 C   0  0  0  0  0  0  0  0  0  0  0  0
    4.9329   -5.6409   62.1408 C   0  0  0  0  0  0  0  0  0  0  0  0
    3.0839   -3.7560   63.4430 C   0  0  0  0  0  0  0  0  0  0  0  0
    5.3728   -4.8748   63.3915 C   0  0  0  0  0  0  0  0  0  0  0  0
    3.6197   -5.6148   65.0520 C   0  0  0  0  0  0  0  0  0  0  0  0
    4.1611   -4.4763   64.2228 N   0  0  0  0  0  0  0  0  0  0  0  0
    4.5249   -3.7772   64.9345 H   0  0  0  0  0  0  0  0  0  0  0  0
  1  2  1  0  0  0
  1  3  2  0  0  0
  2  4  2  0  0  0
  3  8  1  0  0  0
  4 10  1  0  0  0
  5  6  2  0  0  0
  5 11  1  0  0  0
  6 12  1  0  0  0
  7  9  1  0  0  0
  7 12  2  0  0  0
  8 10  2  0  0  0
  8 13  1  0  0  0
  9 11  2  0  0  0
  9 13  1  0  0  0
 10 14  1  0  0  0
 11 14  1  0  0  0
 12 16  1  0  0  0
 19 20  1  0  0  0
 19 21  1  0  0  0
 20 22  1  0  0  0
 21 23  1  0  0  0
 22 25  1  0  0  0
 23 18  1  0  0  0
 23 25  1  0  0  0
 24 25  1  0  0  0
 15 16  1  0  0  0
 18 17  1  0  0  0
 17 13  1  0  0  0
 25 26  1  0  0  0
M  CHG 1  25   1
M  END
> <minimizedAffinity>
-7.85213

> <CNNscore>
0.3767676353

> <CNNaffinity>
6.3355875015

> <CNN_VS>
2.3870444298

> <CNNaffinity_variance>
0.1492716372

$$$$



 26 29  0  0  0  0  0  0  0  0999 V2000
   15.5695   -0.5363   62.0585 C   0  0  0  0  0  0  0  0  0  0  0  0
   14.5357   -1.0140   62.8495 C   0  0  0  0  0  0  0  0  0  0  0  0
   15.2913    0.0239   60.8087 C   0  0  0  0  0  0  0  0  0  0  0  0
   13.2254   -0.9245   62.3919 C   0  0  0  0  0  0  0  0  0  0  0  0
   10.0169    1.4340   58.9495 C   0  0  0  0  0  0  0  0  0  0  0  0
    9.9397    2.3644   57.9185 C   0  0  0  0  0  0  0  0  0  0  0  0
   12.3279    2.2029   57.6296 C   0  0  0  0  0  0  0  0  0  0  0  0
   13.9743    0.1192   60.3084 C   0  0  0  0  0  0  0  0  0  0  0  0
   12.4406    1.2472   58.6631 C   0  0  0  0  0  0  0  0  0  0  0  0
   12.9393   -0.3571   61.1373 C   0  0  0  0  0  0  0  0  0  0  0  0
   11.2535    0.8825   59.3289 C   0  0  0  0  0  0  0  0  0  0  0  0
   11.0968    2.7517   57.2601 C   0  0  0  0  0  0  0  0  0  0  0  0
   13.6909    0.6994   59.0461 N   0  0  0  0  0  0  0  0  0  0  0  0
   11.2270   -0.3168   60.6463 S   0  0  0  0  0  0  0  0  0  0  0  0
   12.2308    3.2513   54.8151 C   0  0  0  0  0  0  0  0  0  0  0  0
   11.0130    3.9555   55.9478 S   0  0  0  0  0  0  0  0  0  0  0  0
   14.7977    0.8039   58.0863 C   0  0  0  0  0  0  0  0  0  0  0  0
   14.7332   -0.2699   57.0068 C   0  0  0  0  0  0  0  0  0  0  0  0
   13.1094   -1.9142   54.8007 C   0  0  0  0  0  0  0  0  0  0  0  0
   14.1545   -1.9478   53.6929 C   0  0  0  0  0  0  0  0  0  0  0  0
   12.8588   -0.4902   55.2861 C   0  0  0  0  0  0  0  0  0  0  0  0
   15.4453   -1.2602   54.1095 C   0  0  0  0  0  0  0  0  0  0  0  0
   14.1378    0.2448   55.6967 C   0  0  0  0  0  0  0  0  0  0  0  0
   14.9312    1.1166   53.4631 C   0  0  0  0  0  0  0  0  0  0  0  0
   15.1821    0.1485   54.5929 N   0  0  0  0  0  0  0  0  0  0  0  0
   16.0893    0.4816   55.0332 H   0  0  0  0  0  0  0  0  0  0  0  0
  1  2  1  0  0  0
  1  3  2  0  0  0
  2  4  2  0  0  0
  3  8  1  0  0  0
  4 10  1  0  0  0
  5  6  2  0  0  0
  5 11  1  0  0  0
  6 12  1  0  0  0
  7  9  1  0  0  0
  7 12  2  0  0  0
  8 10  2  0  0  0
  8 13  1  0  0  0
  9 11  2  0  0  0
  9 13  1  0  0  0
 10 14  1  0  0  0
 11 14  1  0  0  0
 12 16  1  0  0  0
 19 20  1  0  0  0
 19 21  1  0  0  0
 20 22  1  0  0  0
 21 23  1  0  0  0
 22 25  1  0  0  0
 23 18  1  0  0  0
 23 25  1  0  0  0
 24 25  1  0  0  0
 15 16  1  0  0  0
 18 17  1  0  0  0
 17 13  1  0  0  0
 25 26  1  0  0  0
M  CHG 1  25   1
M  END
> <minimizedAffinity>
1.69187

> <CNNscore>
0.3560902476

> <CNNaffinity>
6.3996701241

> <CNN_VS>
2.2788600922

> <CNNaffinity_variance>
0.7159802914

$$$$



 26 29  0  0  0  0  0  0  0  0999 V2000
    8.8804    0.9221   65.5455 C   0  0  0  0  0  0  0  0  0  0  0  0
    8.4059   -0.2104   66.1896 C   0  0  0  0  0  0  0  0  0  0  0  0
    9.2682    0.8523   64.2046 C   0  0  0  0  0  0  0  0  0  0  0  0
    8.3140   -1.4087   65.4896 C   0  0  0  0  0  0  0  0  0  0  0  0
    8.1864   -3.6045   60.7074 C   0  0  0  0  0  0  0  0  0  0  0  0
    8.2233   -3.3559   59.3394 C   0  0  0  0  0  0  0  0  0  0  0  0
    9.1498   -1.1756   59.7876 C   0  0  0  0  0  0  0  0  0  0  0  0
    9.1994   -0.3504   63.4679 C   0  0  0  0  0  0  0  0  0  0  0  0
    9.1379   -1.3999   61.1818 C   0  0  0  0  0  0  0  0  0  0  0  0
    8.6980   -1.4834   64.1388 C   0  0  0  0  0  0  0  0  0  0  0  0
    8.6305   -2.6370   61.6260 C   0  0  0  0  0  0  0  0  0  0  0  0
    8.7023   -2.1389   58.8792 C   0  0  0  0  0  0  0  0  0  0  0  0
    9.5805   -0.4181   62.1039 N   0  0  0  0  0  0  0  0  0  0  0  0
    8.5581   -3.0756   63.3514 S   0  0  0  0  0  0  0  0  0  0  0  0
    7.2818   -2.7346   56.6119 C   0  0  0  0  0  0  0  0  0  0  0  0
    8.7395   -1.8020   57.1290 S   0  0  0  0  0  0  0  0  0  0  0  0
   10.4454    0.6518   61.5898 C   0  0  0  0  0  0  0  0  0  0  0  0
   11.9260    0.3344   61.7617 C   0  0  0  0  0  0  0  0  0  0  0  0
   14.9639    0.1451   60.7906 C   0  0  0  0  0  0  0  0  0  0  0  0
   14.8617    0.9337   59.4913 C   0  0  0  0  0  0  0  0  0  0  0  0
   13.9237   -0.9688   60.8486 C   0  0  0  0  0  0  0  0  0  0  0  0
   13.4558    1.4644   59.2587 C   0  0  0  0  0  0  0  0  0  0  0  0
   12.4948   -0.4782   60.5990 C   0  0  0  0  0  0  0  0  0  0  0  0
   12.4129   -0.4957   58.0748 C   0  0  0  0  0  0  0  0  0  0  0  0
   12.4342    0.3511   59.3235 N   0  0  0  0  0  0  0  0  0  0  0  0
   11.4842    0.8255   59.3405 H   0  0  0  0  0  0  0  0  0  0  0  0
  1  2  1  0  0  0
  1  3  2  0  0  0
  2  4  2  0  0  0
  3  8  1  0  0  0
  4 10  1  0  0  0
  5  6  2  0  0  0
  5 11  1  0  0  0
  6 12  1  0  0  0
  7  9  1  0  0  0
  7 12  2  0  0  0
  8 10  2  0  0  0
  8 13  1  0  0  0
  9 11  2  0  0  0
  9 13  1  0  0  0
 10 14  1  0  0  0
 11 14  1  0  0  0
 12 16  1  0  0  0
 19 20  1  0  0  0
 19 21  1  0  0  0
 20 22  1  0  0  0
 21 23  1  0  0  0
 22 25  1  0  0  0
 23 18  1  0  0  0
 23 25  1  0  0  0
 24 25  1  0  0  0
 15 16  1  0  0  0
 18 17  1  0  0  0
 17 13  1  0  0  0
 25 26  1  0  0  0
M  CHG 1  25   1
M  END
> <minimizedAffinity>
-7.65755

> <CNNscore>
0.3452845514

> <CNNaffinity>
6.5617012978

> <CNN_VS>
2.2656540871

> <CNNaffinity_variance>
0.2515912950

$$$$



 26 29  0  0  0  0  0  0  0  0999 V2000
    8.9250    0.7610   59.2987 C   0  0  0  0  0  0  0  0  0  0  0  0
    8.2143   -0.3187   58.7970 C   0  0  0  0  0  0  0  0  0  0  0  0
   10.1922    1.0601   58.7906 C   0  0  0  0  0  0  0  0  0  0  0  0
    8.7694   -1.0931   57.7839 C   0  0  0  0  0  0  0  0  0  0  0  0
   12.4434   -1.2687   54.0184 C   0  0  0  0  0  0  0  0  0  0  0  0
   13.4771   -0.5704   53.4034 C   0  0  0  0  0  0  0  0  0  0  0  0
   13.5852    0.8983   55.3124 C   0  0  0  0  0  0  0  0  0  0  0  0
   10.7903    0.2878   57.7709 C   0  0  0  0  0  0  0  0  0  0  0  0
   12.5463    0.2042   55.9706 C   0  0  0  0  0  0  0  0  0  0  0  0
   10.0418   -0.7936   57.2653 C   0  0  0  0  0  0  0  0  0  0  0  0
   11.9719   -0.8855   55.2866 C   0  0  0  0  0  0  0  0  0  0  0  0
   14.0463    0.5163   54.0496 C   0  0  0  0  0  0  0  0  0  0  0  0
   12.0703    0.5991   57.2463 N   0  0  0  0  0  0  0  0  0  0  0  0
   10.6605   -1.8682   55.9859 S   0  0  0  0  0  0  0  0  0  0  0  0
   14.3806    2.6087   52.3108 C   0  0  0  0  0  0  0  0  0  0  0  0
   15.3610    1.4293   53.2646 S   0  0  0  0  0  0  0  0  0  0  0  0
   12.9439    1.4555   58.0590 C   0  0  0  0  0  0  0  0  0  0  0  0
   13.9284    0.6501   58.8985 C   0  0  0  0  0  0  0  0  0  0  0  0
   14.6123   -1.2852   61.3468 C   0  0  0  0  0  0  0  0  0  0  0  0
   13.1999   -1.5829   61.8337 C   0  0  0  0  0  0  0  0  0  0  0  0
   14.8582    0.2160   61.2372 C   0  0  0  0  0  0  0  0  0  0  0  0
   12.1476   -0.9019   60.9727 C   0  0  0  0  0  0  0  0  0  0  0  0
   13.8073    0.9430   60.3937 C   0  0  0  0  0  0  0  0  0  0  0  0
   11.9983    1.3370   62.1114 C   0  0  0  0  0  0  0  0  0  0  0  0
   12.4058    0.5846   60.8685 N   0  0  0  0  0  0  0  0  0  0  0  0
   11.7516    0.9435   60.1128 H   0  0  0  0  0  0  0  0  0  0  0  0
  1  2  1  0  0  0
  1  3  2  0  0  0
  2  4  2  0  0  0
  3  8  1  0  0  0
  4 10  1  0  0  0
  5  6  2  0  0  0
  5 11  1  0  0  0
  6 12  1  0  0  0
  7  9  1  0  0  0
  7 12  2  0  0  0
  8 10  2  0  0  0
  8 13  1  0  0  0
  9 11  2  0  0  0
  9 13  1  0  0  0
 10 14  1  0  0  0
 11 14  1  0  0  0
 12 16  1  0  0  0
 19 20  1  0  0  0
 19 21  1  0  0  0
 20 22  1  0  0  0
 21 23  1  0  0  0
 22 25  1  0  0  0
 23 18  1  0  0  0
 23 25  1  0  0  0
 24 25  1  0  0  0
 15 16  1  0  0  0
 18 17  1  0  0  0
 17 13  1  0  0  0
 25 26  1  0  0  0
M  CHG 1  25   1
M  END
> <minimizedAffinity>
-4.74999

> <CNNscore>
0.3232362270

> <CNNaffinity>
6.5451292992

> <CNN_VS>
2.1156229973

> <CNNaffinity_variance>
0.1390656978

$$$$



 26 29  0  0  0  0  0  0  0  0999 V2000
    5.0438   -4.9150   62.2963 C   0  0  0  0  0  0  0  0  0  0  0  0
    4.4501   -5.0999   61.0570 C   0  0  0  0  0  0  0  0  0  0  0  0
    6.2302   -4.1835   62.4003 C   0  0  0  0  0  0  0  0  0  0  0  0
    5.0404   -4.5476   59.9253 C   0  0  0  0  0  0  0  0  0  0  0  0
    8.4810   -0.9702   58.1727 C   0  0  0  0  0  0  0  0  0  0  0  0
    9.3786    0.0244   58.5464 C   0  0  0  0  0  0  0  0  0  0  0  0
    9.4076   -0.8788   60.7817 C   0  0  0  0  0  0  0  0  0  0  0  0
    6.8624   -3.6195   61.2707 C   0  0  0  0  0  0  0  0  0  0  0  0
    8.5068   -1.9089   60.4330 C   0  0  0  0  0  0  0  0  0  0  0  0
    6.2313   -3.8063   60.0249 C   0  0  0  0  0  0  0  0  0  0  0  0
    8.0388   -1.9263   59.1041 C   0  0  0  0  0  0  0  0  0  0  0  0
    9.8398    0.0721   59.8532 C   0  0  0  0  0  0  0  0  0  0  0  0
    8.0590   -2.8663   61.3779 N   0  0  0  0  0  0  0  0  0  0  0  0
    6.9078   -3.1663   58.5059 S   0  0  0  0  0  0  0  0  0  0  0  0
    9.7996    2.6215   60.8594 C   0  0  0  0  0  0  0  0  0  0  0  0
   10.9780    1.3517   60.3485 S   0  0  0  0  0  0  0  0  0  0  0  0
    8.8608   -3.0410   62.5959 C   0  0  0  0  0  0  0  0  0  0  0  0
    8.2916   -2.2702   63.7811 C   0  0  0  0  0  0  0  0  0  0  0  0
    8.1218   -1.0055   66.7100 C   0  0  0  0  0  0  0  0  0  0  0  0
    8.0051    0.4679   66.3410 C   0  0  0  0  0  0  0  0  0  0  0  0
    9.3249   -1.6547   66.0340 C   0  0  0  0  0  0  0  0  0  0  0  0
    7.9839    0.6755   64.8346 C   0  0  0  0  0  0  0  0  0  0  0  0
    9.3516   -1.4510   64.5167 C   0  0  0  0  0  0  0  0  0  0  0  0
   10.4497    0.8176   64.3539 C   0  0  0  0  0  0  0  0  0  0  0  0
    9.1791    0.0231   64.1766 N   0  0  0  0  0  0  0  0  0  0  0  0
    8.9903    0.0512   63.1319 H   0  0  0  0  0  0  0  0  0  0  0  0
  1  2  1  0  0  0
  1  3  2  0  0  0
  2  4  2  0  0  0
  3  8  1  0  0  0
  4 10  1  0  0  0
  5  6  2  0  0  0
  5 11  1  0  0  0
  6 12  1  0  0  0
  7  9  1  0  0  0
  7 12  2  0  0  0
  8 10  2  0  0  0
  8 13  1  0  0  0
  9 11  2  0  0  0
  9 13  1  0  0  0
 10 14  1  0  0  0
 11 14  1  0  0  0
 12 16  1  0  0  0
 19 20  1  0  0  0
 19 21  1  0  0  0
 20 22  1  0  0  0
 21 23  1  0  0  0
 22 25  1  0  0  0
 23 18  1  0  0  0
 23 25  1  0  0  0
 24 25  1  0  0  0
 15 16  1  0  0  0
 18 17  1  0  0  0
 17 13  1  0  0  0
 25 26  1  0  0  0
M  CHG 1  25   1
M  END
> <minimizedAffinity>
-7.82728

> <CNNscore>
0.3145776093

> <CNNaffinity>
6.4369058609

> <CNN_VS>
2.0249063969

> <CNNaffinity_variance>
0.1948342621

$$$$



 26 29  0  0  0  0  0  0  0  0999 V2000
   17.3596    0.6197   57.8830 C   0  0  0  0  0  0  0  0  0  0  0  0
   17.7416    0.2176   56.6122 C   0  0  0  0  0  0  0  0  0  0  0  0
   16.0040    0.7577   58.1939 C   0  0  0  0  0  0  0  0  0  0  0  0
   16.7672   -0.0518   55.6570 C   0  0  0  0  0  0  0  0  0  0  0  0
   11.6734   -1.1315   54.8862 C   0  0  0  0  0  0  0  0  0  0  0  0
   10.4450   -1.3289   55.5080 C   0  0  0  0  0  0  0  0  0  0  0  0
   11.2993   -0.2401   57.4822 C   0  0  0  0  0  0  0  0  0  0  0  0
   14.9895    0.5042   57.2450 C   0  0  0  0  0  0  0  0  0  0  0  0
   12.5545   -0.0124   56.8768 C   0  0  0  0  0  0  0  0  0  0  0  0
   15.4017    0.0805   55.9660 C   0  0  0  0  0  0  0  0  0  0  0  0
   12.7253   -0.4872   55.5612 C   0  0  0  0  0  0  0  0  0  0  0  0
   10.2588   -0.8857   56.8085 C   0  0  0  0  0  0  0  0  0  0  0  0
   13.6139    0.6317   57.5643 N   0  0  0  0  0  0  0  0  0  0  0  0
   14.2449   -0.2693   54.6568 S   0  0  0  0  0  0  0  0  0  0  0  0
    9.1383   -2.5343   58.6900 C   0  0  0  0  0  0  0  0  0  0  0  0
    8.6941   -1.1472   57.6220 S   0  0  0  0  0  0  0  0  0  0  0  0
   13.2652    1.4378   58.7415 C   0  0  0  0  0  0  0  0  0  0  0  0
   12.5048    0.6350   59.7902 C   0  0  0  0  0  0  0  0  0  0  0  0
    9.4956    0.4861   60.8532 C   0  0  0  0  0  0  0  0  0  0  0  0
    8.9372    1.7457   60.2036 C   0  0  0  0  0  0  0  0  0  0  0  0
   10.7611    0.7852   61.6502 C   0  0  0  0  0  0  0  0  0  0  0  0
    9.9804    2.4574   59.3564 C   0  0  0  0  0  0  0  0  0  0  0  0
   11.8304    1.5205   60.8374 C   0  0  0  0  0  0  0  0  0  0  0  0
   11.0696    3.9151   61.0943 C   0  0  0  0  0  0  0  0  0  0  0  0
   11.2312    2.7437   60.1569 N   0  0  0  0  0  0  0  0  0  0  0  0
   11.9619    3.0622   59.4552 H   0  0  0  0  0  0  0  0  0  0  0  0
  1  2  1  0  0  0
  1  3  2  0  0  0
  2  4  2  0  0  0
  3  8  1  0  0  0
  4 10  1  0  0  0
  5  6  2  0  0  0
  5 11  1  0  0  0
  6 12  1  0  0  0
  7  9  1  0  0  0
  7 12  2  0  0  0
  8 10  2  0  0  0
  8 13  1  0  0  0
  9 11  2  0  0  0
  9 13  1  0  0  0
 10 14  1  0  0  0
 11 14  1  0  0  0
 12 16  1  0  0  0
 19 20  1  0  0  0
 19 21  1  0  0  0
 20 22  1  0  0  0
 21 23  1  0  0  0
 22 25  1  0  0  0
 23 18  1  0  0  0
 23 25  1  0  0  0
 24 25  1  0  0  0
 15 16  1  0  0  0
 18 17  1  0  0  0
 17 13  1  0  0  0
 25 26  1  0  0  0
M  CHG 1  25   1
M  END
> <minimizedAffinity>
-7.63039

> <CNNscore>
0.2802246809

> <CNNaffinity>
6.6320886612

> <CNN_VS>
1.8584749699

> <CNNaffinity_variance>
0.2488521338

$$$$



 32 35  0  0  0  0  0  0  0  0999 V2000
   20.4779   -1.5050   58.5642 C   0  0  0  0  0  0  0  0  0  0  0  0
   21.1684   -0.9492   57.4980 C   0  0  0  0  0  0  0  0  0  0  0  0
   14.4015   -0.0667   54.2913 C   0  0  0  0  0  0  0  0  0  0  0  0
   19.0847   -1.4105   58.6196 C   0  0  0  0  0  0  0  0  0  0  0  0
   20.4636   -0.3058   56.4861 C   0  0  0  0  0  0  0  0  0  0  0  0
   15.7397    0.3102   54.2474 C   0  0  0  0  0  0  0  0  0  0  0  0
   14.7215   -0.8420   56.5518 C   0  0  0  0  0  0  0  0  0  0  0  0
   13.8927   -0.6464   55.4435 C   0  0  0  0  0  0  0  0  0  0  0  0
   18.3391   -0.7540   57.6160 C   0  0  0  0  0  0  0  0  0  0  0  0
   16.0809   -0.4600   56.5457 C   0  0  0  0  0  0  0  0  0  0  0  0
   19.0614   -0.2123   56.5342 C   0  0  0  0  0  0  0  0  0  0  0  0
   16.5793    0.1108   55.3578 C   0  0  0  0  0  0  0  0  0  0  0  0
   16.9246   -0.6695   57.6656 N   0  0  0  0  0  0  0  0  0  0  0  0
   18.2683    0.6541   55.1945 S   0  0  0  0  0  0  0  0  0  0  0  0
   12.4983   -1.0573   55.4947 C   0  0  0  0  0  0  0  0  0  0  0  0
   11.9912   -1.8311   54.6651 O   0  0  0  0  0  0  0  0  0  0  0  0
   10.1958   -1.0632   56.5989 C   0  0  0  0  0  0  0  0  0  0  0  0
   11.6130   -0.5123   56.6242 C   0  0  0  0  0  0  0  0  0  0  0  0
   16.2799   -0.8854   58.9674 C   0  0  0  0  0  0  0  0  0  0  0  0
   16.0248    0.4195   59.7188 C   0  0  0  0  0  0  0  0  0  0  0  0
   14.7226    1.1134   59.3249 C   0  0  0  0  0  0  0  0  0  0  0  0
   13.7345    0.0609   61.2541 C   0  0  0  0  0  0  0  0  0  0  0  0
   12.3432    1.2592   59.6762 C   0  0  0  0  0  0  0  0  0  0  0  0
   12.5266   -0.6947   61.7988 C   0  0  0  0  0  0  0  0  0  0  0  0
   11.0951    0.5384   60.1758 C   0  0  0  0  0  0  0  0  0  0  0  0
   13.5409    0.4266   59.8452 N   0  0  0  0  0  0  0  0  0  0  0  0
   11.2666    0.1116   61.6117 N   0  0  0  0  0  0  0  0  0  0  0  0
   10.4690   -0.5523   61.8119 H   0  0  0  0  0  0  0  0  0  0  0  0
   11.1097    1.2329   62.6022 C   0  0  0  0  0  0  0  0  0  0  0  0
   10.9094    0.6521   63.9881 C   0  0  0  0  0  0  0  0  0  0  0  0
   11.6811    1.3875   64.9284 O   0  0  0  0  0  0  0  0  0  0  0  0
   11.5235    0.9835   65.7969 H   0  0  0  0  0  0  0  0  0  0  0  0
  1  2  1  0  0  0
  1  4  2  0  0  0
  2  5  2  0  0  0
  3  6  2  0  0  0
  3  8  1  0  0  0
  4  9  1  0  0  0
  5 11  1  0  0  0
  6 12  1  0  0  0
  7  8  2  0  0  0
  7 10  1  0  0  0
  8 15  1  0  0  0
  9 11  2  0  0  0
  9 13  1  0  0  0
 10 12  2  0  0  0
 10 13  1  0  0  0
 11 14  1  0  0  0
 12 14  1  0  0  0
 15 18  1  0  0  0
 15 16  2  0  0  0
 22 24  1  0  0  0
 22 26  1  0  0  0
 23 25  1  0  0  0
 23 26  1  0  0  0
 24 27  1  0  0  0
 25 27  1  0  0  0
 17 18  1  0  0  0
 20 19  1  0  0  0
 20 21  1  0  0  0
 19 13  1  0  0  0
 21 26  1  0  0  0
 29 30  1  0  0  0
 29 27  1  0  0  0
 30 31  1  0  0  0
 27 28  1  0  0  0
 31 32  1  0  0  0
M  CHG 1  27   1
M  END
> <minimizedAffinity>
-9.33651

> <CNNscore>
0.9053113461

> <CNNaffinity>
7.8560881615

> <CNN_VS>
7.1122059822

> <CNNaffinity_variance>
0.0610901825

$$$$



 32 35  0  0  0  0  0  0  0  0999 V2000
   20.5911   -1.7902   58.3764 C   0  0  0  0  0  0  0  0  0  0  0  0
   21.2467   -1.0650   57.3932 C   0  0  0  0  0  0  0  0  0  0  0  0
   14.3624    0.6134   54.8161 C   0  0  0  0  0  0  0  0  0  0  0  0
   19.2078   -1.6651   58.5313 C   0  0  0  0  0  0  0  0  0  0  0  0
   20.5168   -0.2211   56.5628 C   0  0  0  0  0  0  0  0  0  0  0  0
   15.7108    0.9505   54.7636 C   0  0  0  0  0  0  0  0  0  0  0  0
   14.7688   -0.5834   56.8693 C   0  0  0  0  0  0  0  0  0  0  0  0
   13.8915   -0.1571   55.8684 C   0  0  0  0  0  0  0  0  0  0  0  0
   18.4381   -0.8086   57.7139 C   0  0  0  0  0  0  0  0  0  0  0  0
   16.1407   -0.2491   56.8536 C   0  0  0  0  0  0  0  0  0  0  0  0
   19.1241   -0.0953   56.7109 C   0  0  0  0  0  0  0  0  0  0  0  0
   16.5989    0.5198   55.7654 C   0  0  0  0  0  0  0  0  0  0  0  0
   17.0329   -0.6916   57.8625 N   0  0  0  0  0  0  0  0  0  0  0  0
   18.2979    1.0320   55.6058 S   0  0  0  0  0  0  0  0  0  0  0  0
   12.4860   -0.5273   55.9250 C   0  0  0  0  0  0  0  0  0  0  0  0
   11.7435   -0.2177   56.8721 O   0  0  0  0  0  0  0  0  0  0  0  0
   12.8697   -2.3315   54.1591 C   0  0  0  0  0  0  0  0  0  0  0  0
   11.8919   -1.3355   54.7629 C   0  0  0  0  0  0  0  0  0  0  0  0
   16.4494   -1.1290   59.1373 C   0  0  0  0  0  0  0  0  0  0  0  0
   15.7239   -0.0008   59.8677 C   0  0  0  0  0  0  0  0  0  0  0  0
   14.7495   -0.4863   60.9389 C   0  0  0  0  0  0  0  0  0  0  0  0
   13.0504    0.7286   59.7377 C   0  0  0  0  0  0  0  0  0  0  0  0
   12.5444   -0.2675   61.8855 C   0  0  0  0  0  0  0  0  0  0  0  0
   11.8512    1.6646   59.8500 C   0  0  0  0  0  0  0  0  0  0  0  0
   11.3304    0.6394   62.0595 C   0  0  0  0  0  0  0  0  0  0  0  0
   13.5759    0.3774   61.0631 N   0  0  0  0  0  0  0  0  0  0  0  0
   10.7805    1.0547   60.7184 N   0  0  0  0  0  0  0  0  0  0  0  0
   10.0944    1.8337   60.9173 H   0  0  0  0  0  0  0  0  0  0  0  0
    9.9782   -0.0170   60.0321 C   0  0  0  0  0  0  0  0  0  0  0  0
    9.1515    0.6080   58.9257 C   0  0  0  0  0  0  0  0  0  0  0  0
    8.7569   -0.3968   58.0009 O   0  0  0  0  0  0  0  0  0  0  0  0
    8.2330    0.0454   57.3136 H   0  0  0  0  0  0  0  0  0  0  0  0
  1  2  1  0  0  0
  1  4  2  0  0  0
  2  5  2  0  0  0
  3  6  2  0  0  0
  3  8  1  0  0  0
  4  9  1  0  0  0
  5 11  1  0  0  0
  6 12  1  0  0  0
  7  8  2  0  0  0
  7 10  1  0  0  0
  8 15  1  0  0  0
  9 11  2  0  0  0
  9 13  1  0  0  0
 10 12  2  0  0  0
 10 13  1  0  0  0
 11 14  1  0  0  0
 12 14  1  0  0  0
 15 18  1  0  0  0
 15 16  2  0  0  0
 22 24  1  0  0  0
 22 26  1  0  0  0
 23 25  1  0  0  0
 23 26  1  0  0  0
 24 27  1  0  0  0
 25 27  1  0  0  0
 17 18  1  0  0  0
 20 19  1  0  0  0
 20 21  1  0  0  0
 19 13  1  0  0  0
 21 26  1  0  0  0
 29 30  1  0  0  0
 29 27  1  0  0  0
 30 31  1  0  0  0
 27 28  1  0  0  0
 31 32  1  0  0  0
M  CHG 1  27   1
M  END
> <minimizedAffinity>
-8.65487

> <CNNscore>
0.7000519037

> <CNNaffinity>
7.3598656654

> <CNN_VS>
5.1522879601

> <CNNaffinity_variance>
0.1571053416

$$$$



 32 35  0  0  0  0  0  0  0  0999 V2000
    8.0334    1.2253   66.0245 C   0  0  0  0  0  0  0  0  0  0  0  0
    7.8468    0.0757   66.7770 C   0  0  0  0  0  0  0  0  0  0  0  0
    8.8520   -3.6601   60.3051 C   0  0  0  0  0  0  0  0  0  0  0  0
    8.4921    1.1315   64.7078 C   0  0  0  0  0  0  0  0  0  0  0  0
    8.1130   -1.1656   66.2089 C   0  0  0  0  0  0  0  0  0  0  0  0
    8.8147   -3.7736   61.6908 C   0  0  0  0  0  0  0  0  0  0  0  0
    9.1397   -1.2773   60.5346 C   0  0  0  0  0  0  0  0  0  0  0  0
    9.0114   -2.4101   59.7262 C   0  0  0  0  0  0  0  0  0  0  0  0
    8.7837   -0.1114   64.1041 C   0  0  0  0  0  0  0  0  0  0  0  0
    9.1186   -1.3580   61.9442 C   0  0  0  0  0  0  0  0  0  0  0  0
    8.5699   -1.2661   64.8828 C   0  0  0  0  0  0  0  0  0  0  0  0
    8.9381   -2.6363   62.5087 C   0  0  0  0  0  0  0  0  0  0  0  0
    9.2367   -0.2074   62.7640 N   0  0  0  0  0  0  0  0  0  0  0  0
    8.8994   -2.9062   64.2695 S   0  0  0  0  0  0  0  0  0  0  0  0
    9.0373   -2.2787   58.2779 C   0  0  0  0  0  0  0  0  0  0  0  0
   10.0383   -1.8900   57.6526 O   0  0  0  0  0  0  0  0  0  0  0  0
    6.5314   -1.9001   57.9643 C   0  0  0  0  0  0  0  0  0  0  0  0
    7.7723   -2.6371   57.4852 C   0  0  0  0  0  0  0  0  0  0  0  0
    9.8091    1.0007   62.1559 C   0  0  0  0  0  0  0  0  0  0  0  0
   11.2703    1.2166   62.5443 C   0  0  0  0  0  0  0  0  0  0  0  0
   12.0829   -0.0738   62.6288 C   0  0  0  0  0  0  0  0  0  0  0  0
   12.2077    0.4213   60.2739 C   0  0  0  0  0  0  0  0  0  0  0  0
   14.1908   -0.2707   61.4780 C   0  0  0  0  0  0  0  0  0  0  0  0
   12.8464    0.0512   58.9391 C   0  0  0  0  0  0  0  0  0  0  0  0
   14.8868   -0.6603   60.1778 C   0  0  0  0  0  0  0  0  0  0  0  0
   12.7336   -0.4112   61.3633 N   0  0  0  0  0  0  0  0  0  0  0  0
   14.3485    0.1472   59.0239 N   0  0  0  0  0  0  0  0  0  0  0  0
   14.7154   -0.3199   58.1497 H   0  0  0  0  0  0  0  0  0  0  0  0
   14.8716    1.5567   58.9719 C   0  0  0  0  0  0  0  0  0  0  0  0
   16.3839    1.5259   58.8720 C   0  0  0  0  0  0  0  0  0  0  0  0
   16.7667    1.2379   57.5336 O   0  0  0  0  0  0  0  0  0  0  0  0
   17.7373    1.2279   57.5160 H   0  0  0  0  0  0  0  0  0  0  0  0
  1  2  1  0  0  0
  1  4  2  0  0  0
  2  5  2  0  0  0
  3  6  2  0  0  0
  3  8  1  0  0  0
  4  9  1  0  0  0
  5 11  1  0  0  0
  6 12  1  0  0  0
  7  8  2  0  0  0
  7 10  1  0  0  0
  8 15  1  0  0  0
  9 11  2  0  0  0
  9 13  1  0  0  0
 10 12  2  0  0  0
 10 13  1  0  0  0
 11 14  1  0  0  0
 12 14  1  0  0  0
 15 18  1  0  0  0
 15 16  2  0  0  0
 22 24  1  0  0  0
 22 26  1  0  0  0
 23 25  1  0  0  0
 23 26  1  0  0  0
 24 27  1  0  0  0
 25 27  1  0  0  0
 17 18  1  0  0  0
 20 19  1  0  0  0
 20 21  1  0  0  0
 19 13  1  0  0  0
 21 26  1  0  0  0
 29 30  1  0  0  0
 29 27  1  0  0  0
 30 31  1  0  0  0
 27 28  1  0  0  0
 31 32  1  0  0  0
M  CHG 1  27   1
M  END
> <minimizedAffinity>
-8.53094

> <CNNscore>
0.6319378018

> <CNNaffinity>
7.2345008850

> <CNN_VS>
4.5717544556

> <CNNaffinity_variance>
0.1577010900

$$$$



 32 35  0  0  0  0  0  0  0  0999 V2000
   19.9971   -1.5332   58.5199 C   0  0  0  0  0  0  0  0  0  0  0  0
   20.5305   -1.0080   57.3528 C   0  0  0  0  0  0  0  0  0  0  0  0
   13.3925    0.4174   55.3857 C   0  0  0  0  0  0  0  0  0  0  0  0
   18.6456   -1.3403   58.8189 C   0  0  0  0  0  0  0  0  0  0  0  0
   19.7098   -0.2966   56.4839 C   0  0  0  0  0  0  0  0  0  0  0  0
   14.7267    0.6984   55.1106 C   0  0  0  0  0  0  0  0  0  0  0  0
   14.0430   -0.4218   57.5503 C   0  0  0  0  0  0  0  0  0  0  0  0
   13.0507   -0.1463   56.6055 C   0  0  0  0  0  0  0  0  0  0  0  0
   17.7872   -0.6131   57.9654 C   0  0  0  0  0  0  0  0  0  0  0  0
   15.4051   -0.1380   57.3088 C   0  0  0  0  0  0  0  0  0  0  0  0
   18.3481   -0.1040   56.7773 C   0  0  0  0  0  0  0  0  0  0  0  0
   15.7298    0.4183   56.0556 C   0  0  0  0  0  0  0  0  0  0  0  0
   16.4131   -0.4286   58.2624 N   0  0  0  0  0  0  0  0  0  0  0  0
   17.3999    0.8424   55.6026 S   0  0  0  0  0  0  0  0  0  0  0  0
   11.6601   -0.4573   56.8974 C   0  0  0  0  0  0  0  0  0  0  0  0
   11.1793   -1.5950   56.7610 O   0  0  0  0  0  0  0  0  0  0  0  0
   11.4949    1.7854   58.1072 C   0  0  0  0  0  0  0  0  0  0  0  0
   10.7448    0.6692   57.3973 C   0  0  0  0  0  0  0  0  0  0  0  0
   15.9907   -0.6226   59.6555 C   0  0  0  0  0  0  0  0  0  0  0  0
   14.6631    0.0651   59.9668 C   0  0  0  0  0  0  0  0  0  0  0  0
   13.9024   -0.5620   61.1332 C   0  0  0  0  0  0  0  0  0  0  0  0
   11.5562   -0.9506   60.7461 C   0  0  0  0  0  0  0  0  0  0  0  0
   12.2773    0.3006   62.6892 C   0  0  0  0  0  0  0  0  0  0  0  0
   10.1474   -0.3761   60.8556 C   0  0  0  0  0  0  0  0  0  0  0  0
   10.8892    0.9108   62.8549 C   0  0  0  0  0  0  0  0  0  0  0  0
   12.5539   -0.0161   61.2823 N   0  0  0  0  0  0  0  0  0  0  0  0
    9.8351   -0.0026   62.2823 N   0  0  0  0  0  0  0  0  0  0  0  0
    8.9485    0.5712   62.2410 H   0  0  0  0  0  0  0  0  0  0  0  0
    9.5075   -1.1789   63.1610 C   0  0  0  0  0  0  0  0  0  0  0  0
    8.5905   -2.1243   62.4103 C   0  0  0  0  0  0  0  0  0  0  0  0
    8.8800   -3.4649   62.7838 O   0  0  0  0  0  0  0  0  0  0  0  0
    8.2731   -4.0326   62.2821 H   0  0  0  0  0  0  0  0  0  0  0  0
  1  2  1  0  0  0
  1  4  2  0  0  0
  2  5  2  0  0  0
  3  6  2  0  0  0
  3  8  1  0  0  0
  4  9  1  0  0  0
  5 11  1  0  0  0
  6 12  1  0  0  0
  7  8  2  0  0  0
  7 10  1  0  0  0
  8 15  1  0  0  0
  9 11  2  0  0  0
  9 13  1  0  0  0
 10 12  2  0  0  0
 10 13  1  0  0  0
 11 14  1  0  0  0
 12 14  1  0  0  0
 15 18  1  0  0  0
 15 16  2  0  0  0
 22 24  1  0  0  0
 22 26  1  0  0  0
 23 25  1  0  0  0
 23 26  1  0  0  0
 24 27  1  0  0  0
 25 27  1  0  0  0
 17 18  1  0  0  0
 20 19  1  0  0  0
 20 21  1  0  0  0
 19 13  1  0  0  0
 21 26  1  0  0  0
 29 30  1  0  0  0
 29 27  1  0  0  0
 30 31  1  0  0  0
 27 28  1  0  0  0
 31 32  1  0  0  0
M  CHG 1  27   1
M  END
> <minimizedAffinity>
-9.11972

> <CNNscore>
0.6224198937

> <CNNaffinity>
7.1437211037

> <CNN_VS>
4.4463939667

> <CNNaffinity_variance>
0.2533171177

$$$$



 32 35  0  0  0  0  0  0  0  0999 V2000
    8.2940    0.8411   65.8460 C   0  0  0  0  0  0  0  0  0  0  0  0
    7.7399   -0.3032   66.3990 C   0  0  0  0  0  0  0  0  0  0  0  0
    8.7160   -3.3986   59.5933 C   0  0  0  0  0  0  0  0  0  0  0  0
    8.8943    0.7874   64.5851 C   0  0  0  0  0  0  0  0  0  0  0  0
    7.7814   -1.4974   65.6872 C   0  0  0  0  0  0  0  0  0  0  0  0
    8.4628   -3.6583   60.9361 C   0  0  0  0  0  0  0  0  0  0  0  0
    9.5231   -1.2082   60.1966 C   0  0  0  0  0  0  0  0  0  0  0  0
    9.2437   -2.1711   59.2228 C   0  0  0  0  0  0  0  0  0  0  0  0
    8.9647   -0.4106   63.8407 C   0  0  0  0  0  0  0  0  0  0  0  0
    9.2899   -1.4433   61.5693 C   0  0  0  0  0  0  0  0  0  0  0  0
    8.3796   -1.5560   64.4159 C   0  0  0  0  0  0  0  0  0  0  0  0
    8.7372   -2.6912   61.9194 C   0  0  0  0  0  0  0  0  0  0  0  0
    9.5621   -0.4622   62.5559 N   0  0  0  0  0  0  0  0  0  0  0  0
    8.3942   -3.1440   63.6081 S   0  0  0  0  0  0  0  0  0  0  0  0
    9.4987   -1.8841   57.8199 C   0  0  0  0  0  0  0  0  0  0  0  0
    8.7406   -2.2517   56.9065 O   0  0  0  0  0  0  0  0  0  0  0  0
   10.8922   -0.8299   55.9576 C   0  0  0  0  0  0  0  0  0  0  0  0
   10.7599   -1.0907   57.4499 C   0  0  0  0  0  0  0  0  0  0  0  0
   10.4813    0.6245   62.1937 C   0  0  0  0  0  0  0  0  0  0  0  0
   11.9204    0.3414   62.6196 C   0  0  0  0  0  0  0  0  0  0  0  0
   12.7000   -0.5168   61.6256 C   0  0  0  0  0  0  0  0  0  0  0  0
   14.9781   -0.4746   60.8419 C   0  0  0  0  0  0  0  0  0  0  0  0
   13.2224    0.5578   59.5330 C   0  0  0  0  0  0  0  0  0  0  0  0
   16.0459    0.3328   60.1107 C   0  0  0  0  0  0  0  0  0  0  0  0
   14.2397    1.3946   58.7639 C   0  0  0  0  0  0  0  0  0  0  0  0
   13.7019    0.2504   60.8865 N   0  0  0  0  0  0  0  0  0  0  0  0
   15.5782    0.7015   58.7259 N   0  0  0  0  0  0  0  0  0  0  0  0
   16.2659    1.4226   58.3735 H   0  0  0  0  0  0  0  0  0  0  0  0
   15.6484   -0.4314   57.7387 C   0  0  0  0  0  0  0  0  0  0  0  0
   15.1559    0.0502   56.3883 C   0  0  0  0  0  0  0  0  0  0  0  0
   15.0971   -1.0456   55.4847 O   0  0  0  0  0  0  0  0  0  0  0  0
   14.7787   -0.6934   54.6379 H   0  0  0  0  0  0  0  0  0  0  0  0
  1  2  1  0  0  0
  1  4  2  0  0  0
  2  5  2  0  0  0
  3  6  2  0  0  0
  3  8  1  0  0  0
  4  9  1  0  0  0
  5 11  1  0  0  0
  6 12  1  0  0  0
  7  8  2  0  0  0
  7 10  1  0  0  0
  8 15  1  0  0  0
  9 11  2  0  0  0
  9 13  1  0  0  0
 10 12  2  0  0  0
 10 13  1  0  0  0
 11 14  1  0  0  0
 12 14  1  0  0  0
 15 18  1  0  0  0
 15 16  2  0  0  0
 22 24  1  0  0  0
 22 26  1  0  0  0
 23 25  1  0  0  0
 23 26  1  0  0  0
 24 27  1  0  0  0
 25 27  1  0  0  0
 17 18  1  0  0  0
 20 19  1  0  0  0
 20 21  1  0  0  0
 19 13  1  0  0  0
 21 26  1  0  0  0
 29 30  1  0  0  0
 29 27  1  0  0  0
 30 31  1  0  0  0
 27 28  1  0  0  0
 31 32  1  0  0  0
M  CHG 1  27   1
M  END
> <minimizedAffinity>
-8.68799

> <CNNscore>
0.4674754143

> <CNNaffinity>
7.0688347816

> <CNN_VS>
3.3045065403

> <CNNaffinity_variance>
0.0694173500

$$$$



 32 35  0  0  0  0  0  0  0  0999 V2000
   13.5057   -0.2823   53.2067 C   0  0  0  0  0  0  0  0  0  0  0  0
   12.2262   -0.8112   53.1321 C   0  0  0  0  0  0  0  0  0  0  0  0
   12.3343   -0.6936   60.6705 C   0  0  0  0  0  0  0  0  0  0  0  0
   14.0027    0.1739   54.4306 C   0  0  0  0  0  0  0  0  0  0  0  0
   11.4488   -0.8889   54.2829 C   0  0  0  0  0  0  0  0  0  0  0  0
   11.5244   -0.8069   59.5454 C   0  0  0  0  0  0  0  0  0  0  0  0
   14.0728    0.2492   59.2913 C   0  0  0  0  0  0  0  0  0  0  0  0
   13.6111   -0.1681   60.5427 C   0  0  0  0  0  0  0  0  0  0  0  0
   13.2362    0.1213   55.6155 C   0  0  0  0  0  0  0  0  0  0  0  0
   13.2726    0.1600   58.1311 C   0  0  0  0  0  0  0  0  0  0  0  0
   11.9458   -0.4360   55.5179 C   0  0  0  0  0  0  0  0  0  0  0  0
   11.9858   -0.3934   58.2830 C   0  0  0  0  0  0  0  0  0  0  0  0
   13.7453    0.5721   56.8596 N   0  0  0  0  0  0  0  0  0  0  0  0
   10.8525   -0.5644   56.9188 S   0  0  0  0  0  0  0  0  0  0  0  0
   14.4714   -0.0587   61.7104 C   0  0  0  0  0  0  0  0  0  0  0  0
   15.5350    0.5838   61.7082 O   0  0  0  0  0  0  0  0  0  0  0  0
   15.1490   -1.6189   63.6151 C   0  0  0  0  0  0  0  0  0  0  0  0
   14.0469   -0.7675   63.0044 C   0  0  0  0  0  0  0  0  0  0  0  0
   14.8972    1.4827   56.8286 C   0  0  0  0  0  0  0  0  0  0  0  0
   16.2221    0.7461   56.6434 C   0  0  0  0  0  0  0  0  0  0  0  0
   17.1491    1.3933   55.6167 C   0  0  0  0  0  0  0  0  0  0  0  0
   19.5057    1.2231   56.0894 C   0  0  0  0  0  0  0  0  0  0  0  0
   18.1738   -0.7791   55.8089 C   0  0  0  0  0  0  0  0  0  0  0  0
   20.7920    0.4463   55.8275 C   0  0  0  0  0  0  0  0  0  0  0  0
   19.4218   -1.6137   55.5394 C   0  0  0  0  0  0  0  0  0  0  0  0
   18.3664    0.6151   55.3903 N   0  0  0  0  0  0  0  0  0  0  0  0
   20.6255   -1.0022   56.2106 N   0  0  0  0  0  0  0  0  0  0  0  0
   21.4648   -1.5033   55.8087 H   0  0  0  0  0  0  0  0  0  0  0  0
   20.6860   -1.2498   57.6932 C   0  0  0  0  0  0  0  0  0  0  0  0
   21.1574   -2.6685   57.9448 C   0  0  0  0  0  0  0  0  0  0  0  0
   22.4882   -2.8194   57.4686 O   0  0  0  0  0  0  0  0  0  0  0  0
   22.7478   -3.7372   57.6491 H   0  0  0  0  0  0  0  0  0  0  0  0
  1  2  1  0  0  0
  1  4  2  0  0  0
  2  5  2  0  0  0
  3  6  2  0  0  0
  3  8  1  0  0  0
  4  9  1  0  0  0
  5 11  1  0  0  0
  6 12  1  0  0  0
  7  8  2  0  0  0
  7 10  1  0  0  0
  8 15  1  0  0  0
  9 11  2  0  0  0
  9 13  1  0  0  0
 10 12  2  0  0  0
 10 13  1  0  0  0
 11 14  1  0  0  0
 12 14  1  0  0  0
 15 18  1  0  0  0
 15 16  2  0  0  0
 22 24  1  0  0  0
 22 26  1  0  0  0
 23 25  1  0  0  0
 23 26  1  0  0  0
 24 27  1  0  0  0
 25 27  1  0  0  0
 17 18  1  0  0  0
 20 19  1  0  0  0
 20 21  1  0  0  0
 19 13  1  0  0  0
 21 26  1  0  0  0
 29 30  1  0  0  0
 29 27  1  0  0  0
 30 31  1  0  0  0
 27 28  1  0  0  0
 31 32  1  0  0  0
M  CHG 1  27   1
M  END
> <minimizedAffinity>
1.51934

> <CNNscore>
0.4242289662

> <CNNaffinity>
6.8191275597

> <CNN_VS>
2.8928713799

> <CNNaffinity_variance>
1.2011754513

$$$$



 32 35  0  0  0  0  0  0  0  0999 V2000
    9.2186   -1.3337   57.2427 C   0  0  0  0  0  0  0  0  0  0  0  0
   10.4445   -0.7530   56.9556 C   0  0  0  0  0  0  0  0  0  0  0  0
   10.8601    0.7079   64.3410 C   0  0  0  0  0  0  0  0  0  0  0  0
    8.8436   -1.5531   58.5710 C   0  0  0  0  0  0  0  0  0  0  0  0
   11.2900   -0.3869   57.9975 C   0  0  0  0  0  0  0  0  0  0  0  0
   11.5801    0.6331   63.1534 C   0  0  0  0  0  0  0  0  0  0  0  0
    9.1112   -0.6107   63.3330 C   0  0  0  0  0  0  0  0  0  0  0  0
    9.6229    0.0881   64.4299 C   0  0  0  0  0  0  0  0  0  0  0  0
    9.6826   -1.2049   59.6522 C   0  0  0  0  0  0  0  0  0  0  0  0
    9.8209   -0.7169   62.1168 C   0  0  0  0  0  0  0  0  0  0  0  0
   10.9155   -0.6006   59.3360 C   0  0  0  0  0  0  0  0  0  0  0  0
   11.0676   -0.0644   62.0449 C   0  0  0  0  0  0  0  0  0  0  0  0
    9.2965   -1.4156   61.0002 N   0  0  0  0  0  0  0  0  0  0  0  0
   12.0883   -0.1127   60.5853 S   0  0  0  0  0  0  0  0  0  0  0  0
    8.8555    0.1726   65.6626 C   0  0  0  0  0  0  0  0  0  0  0  0
    8.4575    1.2494   66.1382 O   0  0  0  0  0  0  0  0  0  0  0  0
    9.7315   -2.0151   66.6462 C   0  0  0  0  0  0  0  0  0  0  0  0
    8.5207   -1.1260   66.4098 C   0  0  0  0  0  0  0  0  0  0  0  0
    8.2204   -2.3829   61.2518 C   0  0  0  0  0  0  0  0  0  0  0  0
    8.7217   -3.6524   61.9370 C   0  0  0  0  0  0  0  0  0  0  0  0
    8.0121   -3.9640   63.2530 C   0  0  0  0  0  0  0  0  0  0  0  0
    5.8538   -5.0213   63.4258 C   0  0  0  0  0  0  0  0  0  0  0  0
    6.1370   -2.7161   64.1093 C   0  0  0  0  0  0  0  0  0  0  0  0
    4.3448   -4.8361   63.3026 C   0  0  0  0  0  0  0  0  0  0  0  0
    4.6360   -2.4646   64.0063 C   0  0  0  0  0  0  0  0  0  0  0  0
    6.5658   -3.7623   63.1724 N   0  0  0  0  0  0  0  0  0  0  0  0
    3.8666   -3.7429   64.2239 N   0  0  0  0  0  0  0  0  0  0  0  0
    2.8730   -3.5345   63.9300 H   0  0  0  0  0  0  0  0  0  0  0  0
    3.7760   -4.1598   65.6665 C   0  0  0  0  0  0  0  0  0  0  0  0
    2.7497   -5.2670   65.8039 C   0  0  0  0  0  0  0  0  0  0  0  0
    3.1488   -6.1607   66.8348 O   0  0  0  0  0  0  0  0  0  0  0  0
    2.4668   -6.8495   66.8877 H   0  0  0  0  0  0  0  0  0  0  0  0
  1  2  1  0  0  0
  1  4  2  0  0  0
  2  5  2  0  0  0
  3  6  2  0  0  0
  3  8  1  0  0  0
  4  9  1  0  0  0
  5 11  1  0  0  0
  6 12  1  0  0  0
  7  8  2  0  0  0
  7 10  1  0  0  0
  8 15  1  0  0  0
  9 11  2  0  0  0
  9 13  1  0  0  0
 10 12  2  0  0  0
 10 13  1  0  0  0
 11 14  1  0  0  0
 12 14  1  0  0  0
 15 18  1  0  0  0
 15 16  2  0  0  0
 22 24  1  0  0  0
 22 26  1  0  0  0
 23 25  1  0  0  0
 23 26  1  0  0  0
 24 27  1  0  0  0
 25 27  1  0  0  0
 17 18  1  0  0  0
 20 19  1  0  0  0
 20 21  1  0  0  0
 19 13  1  0  0  0
 21 26  1  0  0  0
 29 30  1  0  0  0
 29 27  1  0  0  0
 30 31  1  0  0  0
 27 28  1  0  0  0
 31 32  1  0  0  0
M  CHG 1  27   1
M  END
> <minimizedAffinity>
-8.54199

> <CNNscore>
0.3900104761

> <CNNaffinity>
6.5566544533

> <CNN_VS>
2.5571639538

> <CNNaffinity_variance>
0.2407685816

$$$$



 32 35  0  0  0  0  0  0  0  0999 V2000
   11.1083   -0.6251   66.6167 C   0  0  0  0  0  0  0  0  0  0  0  0
    9.8448   -1.1762   66.7657 C   0  0  0  0  0  0  0  0  0  0  0  0
    9.0734   -0.0284   59.3536 C   0  0  0  0  0  0  0  0  0  0  0  0
   11.6264   -0.4014   65.3382 C   0  0  0  0  0  0  0  0  0  0  0  0
    9.0994   -1.4965   65.6359 C   0  0  0  0  0  0  0  0  0  0  0  0
    8.5609   -0.6951   60.4615 C   0  0  0  0  0  0  0  0  0  0  0  0
   11.1289    0.3393   60.5590 C   0  0  0  0  0  0  0  0  0  0  0  0
   10.3576    0.4922   59.4035 C   0  0  0  0  0  0  0  0  0  0  0  0
   10.9020   -0.7259   64.1702 C   0  0  0  0  0  0  0  0  0  0  0  0
   10.6444   -0.3423   61.6968 C   0  0  0  0  0  0  0  0  0  0  0  0
    9.6138   -1.2687   64.3472 C   0  0  0  0  0  0  0  0  0  0  0  0
    9.3308   -0.8472   61.6285 C   0  0  0  0  0  0  0  0  0  0  0  0
   11.4224   -0.4869   62.8732 N   0  0  0  0  0  0  0  0  0  0  0  0
    8.5790   -1.7392   62.9752 S   0  0  0  0  0  0  0  0  0  0  0  0
   10.8977    1.2037   58.2556 C   0  0  0  0  0  0  0  0  0  0  0  0
   10.7702    0.7978   57.0881 O   0  0  0  0  0  0  0  0  0  0  0  0
   13.1696    2.3544   58.4433 C   0  0  0  0  0  0  0  0  0  0  0  0
   11.6583    2.5154   58.4958 C   0  0  0  0  0  0  0  0  0  0  0  0
   12.8746   -0.3056   62.7504 C   0  0  0  0  0  0  0  0  0  0  0  0
   13.4051   -0.7318   61.3831 C   0  0  0  0  0  0  0  0  0  0  0  0
   14.5901    0.0989   60.8953 C   0  0  0  0  0  0  0  0  0  0  0  0
   14.4929   -0.4255   58.5455 C   0  0  0  0  0  0  0  0  0  0  0  0
   16.6173    0.0760   59.5928 C   0  0  0  0  0  0  0  0  0  0  0  0
   15.1917   -1.1117   57.3761 C   0  0  0  0  0  0  0  0  0  0  0  0
   17.3772   -0.5954   58.4533 C   0  0  0  0  0  0  0  0  0  0  0  0
   15.2906   -0.5267   59.7742 N   0  0  0  0  0  0  0  0  0  0  0  0
   16.5750   -0.5464   57.1777 N   0  0  0  0  0  0  0  0  0  0  0  0
   17.0599   -1.2038   56.5072 H   0  0  0  0  0  0  0  0  0  0  0  0
   16.5914    0.7968   56.5003 C   0  0  0  0  0  0  0  0  0  0  0  0
   17.9256    0.9915   55.8074 C   0  0  0  0  0  0  0  0  0  0  0  0
   18.5730    2.1415   56.3357 O   0  0  0  0  0  0  0  0  0  0  0  0
   19.4182    2.2275   55.8661 H   0  0  0  0  0  0  0  0  0  0  0  0
  1  2  1  0  0  0
  1  4  2  0  0  0
  2  5  2  0  0  0
  3  6  2  0  0  0
  3  8  1  0  0  0
  4  9  1  0  0  0
  5 11  1  0  0  0
  6 12  1  0  0  0
  7  8  2  0  0  0
  7 10  1  0  0  0
  8 15  1  0  0  0
  9 11  2  0  0  0
  9 13  1  0  0  0
 10 12  2  0  0  0
 10 13  1  0  0  0
 11 14  1  0  0  0
 12 14  1  0  0  0
 15 18  1  0  0  0
 15 16  2  0  0  0
 22 24  1  0  0  0
 22 26  1  0  0  0
 23 25  1  0  0  0
 23 26  1  0  0  0
 24 27  1  0  0  0
 25 27  1  0  0  0
 17 18  1  0  0  0
 20 19  1  0  0  0
 20 21  1  0  0  0
 19 13  1  0  0  0
 21 26  1  0  0  0
 29 30  1  0  0  0
 29 27  1  0  0  0
 30 31  1  0  0  0
 27 28  1  0  0  0
 31 32  1  0  0  0
M  CHG 1  27   1
M  END
> <minimizedAffinity>
-4.01102

> <CNNscore>
0.3008164167

> <CNNaffinity>
6.7078042030

> <CNN_VS>
2.0178177357

> <CNNaffinity_variance>
0.2264908552

$$$$



 32 35  0  0  0  0  0  0  0  0999 V2000
   13.9941    2.2305   57.9998 C   0  0  0  0  0  0  0  0  0  0  0  0
   14.9240    1.2375   58.2677 C   0  0  0  0  0  0  0  0  0  0  0  0
   10.9275   -0.0475   64.5310 C   0  0  0  0  0  0  0  0  0  0  0  0
   12.8270    2.3188   58.7634 C   0  0  0  0  0  0  0  0  0  0  0  0
   14.6879    0.3390   59.3028 C   0  0  0  0  0  0  0  0  0  0  0  0
   11.8980   -0.5580   63.6754 C   0  0  0  0  0  0  0  0  0  0  0  0
   10.2503    1.4908   62.8022 C   0  0  0  0  0  0  0  0  0  0  0  0
   10.1049    0.9803   64.0951 C   0  0  0  0  0  0  0  0  0  0  0  0
   12.5500    1.4159   59.8133 C   0  0  0  0  0  0  0  0  0  0  0  0
   11.2166    0.9876   61.9037 C   0  0  0  0  0  0  0  0  0  0  0  0
   13.5177    0.4265   60.0776 C   0  0  0  0  0  0  0  0  0  0  0  0
   12.0520   -0.0444   62.3753 C   0  0  0  0  0  0  0  0  0  0  0  0
   11.3721    1.5137   60.5964 N   0  0  0  0  0  0  0  0  0  0  0  0
   13.3119   -0.7919   61.3612 S   0  0  0  0  0  0  0  0  0  0  0  0
    9.0966    1.5310   64.9870 C   0  0  0  0  0  0  0  0  0  0  0  0
    9.3129    1.7667   66.1878 O   0  0  0  0  0  0  0  0  0  0  0  0
    6.7535    0.6497   64.4826 C   0  0  0  0  0  0  0  0  0  0  0  0
    7.7027    1.8361   64.4205 C   0  0  0  0  0  0  0  0  0  0  0  0
   10.2504    2.2794   60.0375 C   0  0  0  0  0  0  0  0  0  0  0  0
    9.7193    1.6776   58.7382 C   0  0  0  0  0  0  0  0  0  0  0  0
    8.2564    1.2455   58.8116 C   0  0  0  0  0  0  0  0  0  0  0  0
    9.2010   -0.4573   57.3925 C   0  0  0  0  0  0  0  0  0  0  0  0
    7.6280   -1.0586   59.1319 C   0  0  0  0  0  0  0  0  0  0  0  0
    8.9506   -1.7731   56.6627 C   0  0  0  0  0  0  0  0  0  0  0  0
    7.3326   -2.3919   58.4524 C   0  0  0  0  0  0  0  0  0  0  0  0
    8.0161   -0.0370   58.1511 N   0  0  0  0  0  0  0  0  0  0  0  0
    8.5135   -2.8430   57.6307 N   0  0  0  0  0  0  0  0  0  0  0  0
    8.1615   -3.6420   57.0351 H   0  0  0  0  0  0  0  0  0  0  0  0
    9.6375   -3.4201   58.4472 C   0  0  0  0  0  0  0  0  0  0  0  0
    9.0613   -4.1778   59.6270 C   0  0  0  0  0  0  0  0  0  0  0  0
    9.2106   -5.5753   59.4139 O   0  0  0  0  0  0  0  0  0  0  0  0
    8.8302   -6.0189   60.1891 H   0  0  0  0  0  0  0  0  0  0  0  0
  1  2  1  0  0  0
  1  4  2  0  0  0
  2  5  2  0  0  0
  3  6  2  0  0  0
  3  8  1  0  0  0
  4  9  1  0  0  0
  5 11  1  0  0  0
  6 12  1  0  0  0
  7  8  2  0  0  0
  7 10  1  0  0  0
  8 15  1  0  0  0
  9 11  2  0  0  0
  9 13  1  0  0  0
 10 12  2  0  0  0
 10 13  1  0  0  0
 11 14  1  0  0  0
 12 14  1  0  0  0
 15 18  1  0  0  0
 15 16  2  0  0  0
 22 24  1  0  0  0
 22 26  1  0  0  0
 23 25  1  0  0  0
 23 26  1  0  0  0
 24 27  1  0  0  0
 25 27  1  0  0  0
 17 18  1  0  0  0
 20 19  1  0  0  0
 20 21  1  0  0  0
 19 13  1  0  0  0
 21 26  1  0  0  0
 29 30  1  0  0  0
 29 27  1  0  0  0
 30 31  1  0  0  0
 27 28  1  0  0  0
 31 32  1  0  0  0
M  CHG 1  27   1
M  END
> <minimizedAffinity>
2.95014

> <CNNscore>
0.2971009016

> <CNNaffinity>
6.1881046295

> <CNN_VS>
1.8384914398

> <CNNaffinity_variance>
0.2864608765

$$$$



 28 30  0  0  0  0  0  0  0  0999 V2000
   10.9453   -0.9392   60.6135 C   0  0  0  0  0  0  0  0  0  0  0  0
   10.8222   -0.3113   63.0499 C   0  0  0  0  0  0  0  0  0  0  0  0
   11.9743    0.1650   60.3867 C   0  0  0  0  0  0  0  0  0  0  0  0
   11.8670    0.7764   62.8127 C   0  0  0  0  0  0  0  0  0  0  0  0
    9.9904   -0.6326   61.7890 C   0  0  0  0  0  0  0  0  0  0  0  0
   12.7565    0.4322   61.6471 N   0  0  0  0  0  0  0  0  0  0  0  0
    9.2654    0.5573   61.4328 O   0  0  0  0  0  0  0  0  0  0  0  0
   13.3154    1.3114   61.4499 H   0  0  0  0  0  0  0  0  0  0  0  0
    8.7145    0.7862   62.1978 H   0  0  0  0  0  0  0  0  0  0  0  0
    8.4403   -1.8497   63.3818 C   0  0  0  0  0  0  0  0  0  0  0  0
    8.5536   -2.5977   61.0873 C   0  0  0  0  0  0  0  0  0  0  0  0
    7.5059   -2.8468   63.6608 C   0  0  0  0  0  0  0  0  0  0  0  0
    7.6190   -3.5949   61.3662 C   0  0  0  0  0  0  0  0  0  0  0  0
    8.9642   -1.7250   62.0950 C   0  0  0  0  0  0  0  0  0  0  0  0
    7.0952   -3.7194   62.6530 C   0  0  0  0  0  0  0  0  0  0  0  0
    5.9425   -4.9496   62.9974 Cl  0  0  0  0  0  0  0  0  0  0  0  0
   13.7840   -0.6216   61.9611 C   0  0  0  0  0  0  0  0  0  0  0  0
   14.6094   -0.9000   60.7140 C   0  0  0  0  0  0  0  0  0  0  0  0
   15.6286    0.2140   60.4697 C   0  0  0  0  0  0  0  0  0  0  0  0
   15.8936    0.4363   58.9883 C   0  0  0  0  0  0  0  0  0  0  0  0
   15.0869    1.0093   58.2597 O   0  0  0  0  0  0  0  0  0  0  0  0
   17.5689    0.3517   57.1331 C   0  0  0  0  0  0  0  0  0  0  0  0
   17.9839   -0.9292   59.1391 C   0  0  0  0  0  0  0  0  0  0  0  0
   18.7679   -0.1100   56.5902 C   0  0  0  0  0  0  0  0  0  0  0  0
   19.1830   -1.3910   58.5962 C   0  0  0  0  0  0  0  0  0  0  0  0
   17.1769   -0.0579   58.4076 C   0  0  0  0  0  0  0  0  0  0  0  0
   19.5750   -0.9814   57.3217 C   0  0  0  0  0  0  0  0  0  0  0  0
   20.7264   -1.4248   56.8004 F   0  0  0  0  0  0  0  0  0  0  0  0
 22 24  2  0  0  0
 22 26  1  0  0  0
 23 25  1  0  0  0
 23 26  2  0  0  0
 10 12  2  0  0  0
 10 14  1  0  0  0
 11 13  1  0  0  0
 11 14  2  0  0  0
 24 27  1  0  0  0
 25 27  2  0  0  0
 12 15  1  0  0  0
 13 15  2  0  0  0
 26 20  1  0  0  0
 14  5  1  0  0  0
 27 28  1  0  0  0
 15 16  1  0  0  0
 20 19  1  0  0  0
 20 21  2  0  0  0
  1  3  1  0  0  0
  1  5  1  0  0  0
  2  4  1  0  0  0
  2  5  1  0  0  0
  3  6  1  0  0  0
  4  6  1  0  0  0
  5  7  1  0  0  0
 19 18  1  0  0  0
 18 17  1  0  0  0
 17  6  1  0  0  0
  6  8  1  0  0  0
  7  9  1  0  0  0
M  CHG 1   6   1
M  END
> <minimizedAffinity>
-9.14121

> <CNNscore>
0.7632197142

> <CNNaffinity>
6.4369812012

> <CNN_VS>
4.9128308296

> <CNNaffinity_variance>
0.0271946732

$$$$



 28 30  0  0  0  0  0  0  0  0999 V2000
   15.2954   -0.7615   60.1412 C   0  0  0  0  0  0  0  0  0  0  0  0
   15.0654    1.1041   58.4642 C   0  0  0  0  0  0  0  0  0  0  0  0
   14.0627   -0.2441   60.8775 C   0  0  0  0  0  0  0  0  0  0  0  0
   13.8220    1.5987   59.1992 C   0  0  0  0  0  0  0  0  0  0  0  0
   16.0518    0.3548   59.3864 C   0  0  0  0  0  0  0  0  0  0  0  0
   13.1369    0.4734   59.9288 N   0  0  0  0  0  0  0  0  0  0  0  0
   16.5106    1.2876   60.3801 O   0  0  0  0  0  0  0  0  0  0  0  0
   12.4091    0.9382   60.5441 H   0  0  0  0  0  0  0  0  0  0  0  0
   16.9277    2.0209   59.9010 H   0  0  0  0  0  0  0  0  0  0  0  0
   17.4692    0.3428   57.2860 C   0  0  0  0  0  0  0  0  0  0  0  0
   18.1881   -0.9896   59.1689 C   0  0  0  0  0  0  0  0  0  0  0  0
   18.5815   -0.0829   56.5601 C   0  0  0  0  0  0  0  0  0  0  0  0
   19.3005   -1.4153   58.4429 C   0  0  0  0  0  0  0  0  0  0  0  0
   17.2725   -0.1105   58.5905 C   0  0  0  0  0  0  0  0  0  0  0  0
   19.4972   -0.9619   57.1385 C   0  0  0  0  0  0  0  0  0  0  0  0
   20.8692   -1.4871   56.2428 Cl  0  0  0  0  0  0  0  0  0  0  0  0
   12.3569   -0.4454   59.0274 C   0  0  0  0  0  0  0  0  0  0  0  0
   11.0405    0.2201   58.6562 C   0  0  0  0  0  0  0  0  0  0  0  0
   11.0149    0.5988   57.1744 C   0  0  0  0  0  0  0  0  0  0  0  0
   11.3816   -0.5722   56.2752 C   0  0  0  0  0  0  0  0  0  0  0  0
   10.5967   -1.4893   56.0453 O   0  0  0  0  0  0  0  0  0  0  0  0
   13.3936    0.5929   55.3532 C   0  0  0  0  0  0  0  0  0  0  0  0
   13.3516   -1.8226   55.3740 C   0  0  0  0  0  0  0  0  0  0  0  0
   14.6615    0.5659   54.7726 C   0  0  0  0  0  0  0  0  0  0  0  0
   14.6196   -1.8497   54.7934 C   0  0  0  0  0  0  0  0  0  0  0  0
   12.7386   -0.6014   55.6540 C   0  0  0  0  0  0  0  0  0  0  0  0
   15.2746   -0.6554   54.4926 C   0  0  0  0  0  0  0  0  0  0  0  0
   16.4922   -0.6814   53.9350 F   0  0  0  0  0  0  0  0  0  0  0  0
 22 24  2  0  0  0
 22 26  1  0  0  0
 23 25  1  0  0  0
 23 26  2  0  0  0
 10 12  2  0  0  0
 10 14  1  0  0  0
 11 13  1  0  0  0
 11 14  2  0  0  0
 24 27  1  0  0  0
 25 27  2  0  0  0
 12 15  1  0  0  0
 13 15  2  0  0  0
 26 20  1  0  0  0
 14  5  1  0  0  0
 27 28  1  0  0  0
 15 16  1  0  0  0
 20 19  1  0  0  0
 20 21  2  0  0  0
  1  3  1  0  0  0
  1  5  1  0  0  0
  2  4  1  0  0  0
  2  5  1  0  0  0
  3  6  1  0  0  0
  4  6  1  0  0  0
  5  7  1  0  0  0
 19 18  1  0  0  0
 18 17  1  0  0  0
 17  6  1  0  0  0
  6  8  1  0  0  0
  7  9  1  0  0  0
M  CHG 1   6   1
M  END
> <minimizedAffinity>
-9.12390

> <CNNscore>
0.6873790026

> <CNNaffinity>
7.0902290344

> <CNN_VS>
4.8736743927

> <CNNaffinity_variance>
0.0207269825

$$$$



 28 30  0  0  0  0  0  0  0  0999 V2000
   11.4976   -0.0464   59.0668 C   0  0  0  0  0  0  0  0  0  0  0  0
   11.0081   -0.5664   61.4824 C   0  0  0  0  0  0  0  0  0  0  0  0
   12.5719    0.9457   59.5039 C   0  0  0  0  0  0  0  0  0  0  0  0
   12.0993    0.4142   61.9049 C   0  0  0  0  0  0  0  0  0  0  0  0
   10.3772   -0.2140   60.1176 C   0  0  0  0  0  0  0  0  0  0  0  0
   13.1528    0.5498   60.8371 N   0  0  0  0  0  0  0  0  0  0  0  0
    9.7415    1.0691   60.2519 O   0  0  0  0  0  0  0  0  0  0  0  0
   13.7537    1.3705   61.1367 H   0  0  0  0  0  0  0  0  0  0  0  0
    9.0826    0.9798   60.9584 H   0  0  0  0  0  0  0  0  0  0  0  0
    8.3350   -0.9171   58.7924 C   0  0  0  0  0  0  0  0  0  0  0  0
    9.2629   -2.4727   60.3913 C   0  0  0  0  0  0  0  0  0  0  0  0
    7.3462   -1.8444   58.4641 C   0  0  0  0  0  0  0  0  0  0  0  0
    8.2740   -3.4001   60.0629 C   0  0  0  0  0  0  0  0  0  0  0  0
    9.2935   -1.2313   59.7560 C   0  0  0  0  0  0  0  0  0  0  0  0
    7.3157   -3.0858   59.0993 C   0  0  0  0  0  0  0  0  0  0  0  0
    6.0956   -4.2295   58.6943 Cl  0  0  0  0  0  0  0  0  0  0  0  0
   14.0967   -0.6203   60.7669 C   0  0  0  0  0  0  0  0  0  0  0  0
   15.4827   -0.1205   60.3885 C   0  0  0  0  0  0  0  0  0  0  0  0
   16.0404   -0.8981   59.1953 C   0  0  0  0  0  0  0  0  0  0  0  0
   16.8668   -0.0175   58.2704 C   0  0  0  0  0  0  0  0  0  0  0  0
   16.4379    1.0443   57.8247 O   0  0  0  0  0  0  0  0  0  0  0  0
   18.9623   -1.2943   58.7542 C   0  0  0  0  0  0  0  0  0  0  0  0
   18.8075   -0.0444   56.6925 C   0  0  0  0  0  0  0  0  0  0  0  0
   20.2476   -1.7094   58.4060 C   0  0  0  0  0  0  0  0  0  0  0  0
   20.0928   -0.4595   56.3442 C   0  0  0  0  0  0  0  0  0  0  0  0
   18.2422   -0.4617   57.8974 C   0  0  0  0  0  0  0  0  0  0  0  0
   20.8129   -1.2921   57.2010 C   0  0  0  0  0  0  0  0  0  0  0  0
   22.0472   -1.6907   56.8666 F   0  0  0  0  0  0  0  0  0  0  0  0
 22 24  2  0  0  0
 22 26  1  0  0  0
 23 25  1  0  0  0
 23 26  2  0  0  0
 10 12  2  0  0  0
 10 14  1  0  0  0
 11 13  1  0  0  0
 11 14  2  0  0  0
 24 27  1  0  0  0
 25 27  2  0  0  0
 12 15  1  0  0  0
 13 15  2  0  0  0
 26 20  1  0  0  0
 14  5  1  0  0  0
 27 28  1  0  0  0
 15 16  1  0  0  0
 20 19  1  0  0  0
 20 21  2  0  0  0
  1  3  1  0  0  0
  1  5  1  0  0  0
  2  4  1  0  0  0
  2  5  1  0  0  0
  3  6  1  0  0  0
  4  6  1  0  0  0
  5  7  1  0  0  0
 19 18  1  0  0  0
 18 17  1  0  0  0
 17  6  1  0  0  0
  6  8  1  0  0  0
  7  9  1  0  0  0
M  CHG 1   6   1
M  END
> <minimizedAffinity>
-9.82532

> <CNNscore>
0.6119281054

> <CNNaffinity>
6.2206034660

> <CNN_VS>
3.8065621853

> <CNNaffinity_variance>
0.0309037007

$$$$



 28 30  0  0  0  0  0  0  0  0999 V2000
   11.3831   -0.4708   58.2406 C   0  0  0  0  0  0  0  0  0  0  0  0
   10.6236    0.3124   60.5111 C   0  0  0  0  0  0  0  0  0  0  0  0
   12.4796    0.5909   58.2474 C   0  0  0  0  0  0  0  0  0  0  0  0
   11.7374    1.3566   60.5132 C   0  0  0  0  0  0  0  0  0  0  0  0
   10.1563   -0.0670   59.0889 C   0  0  0  0  0  0  0  0  0  0  0  0
   12.8971    0.9175   59.6584 N   0  0  0  0  0  0  0  0  0  0  0  0
    9.6064    1.1158   58.4831 O   0  0  0  0  0  0  0  0  0  0  0  0
   13.5245    1.7683   59.5760 H   0  0  0  0  0  0  0  0  0  0  0  0
    8.8770    1.4062   59.0531 H   0  0  0  0  0  0  0  0  0  0  0  0
    9.0320   -2.0552   60.1859 C   0  0  0  0  0  0  0  0  0  0  0  0
    8.0348   -1.1225   58.1927 C   0  0  0  0  0  0  0  0  0  0  0  0
    8.0160   -3.0089   60.2479 C   0  0  0  0  0  0  0  0  0  0  0  0
    7.0187   -2.0762   58.2547 C   0  0  0  0  0  0  0  0  0  0  0  0
    9.0413   -1.1120   59.1583 C   0  0  0  0  0  0  0  0  0  0  0  0
    7.0094   -3.0194   59.2824 C   0  0  0  0  0  0  0  0  0  0  0  0
    5.7563   -4.1960   59.3590 Cl  0  0  0  0  0  0  0  0  0  0  0  0
   13.7549   -0.1397   60.2998 C   0  0  0  0  0  0  0  0  0  0  0  0
   15.2099    0.3012   60.2497 C   0  0  0  0  0  0  0  0  0  0  0  0
   16.0542   -0.6818   59.4370 C   0  0  0  0  0  0  0  0  0  0  0  0
   16.7486   -0.0092   58.2625 C   0  0  0  0  0  0  0  0  0  0  0  0
   16.2123    0.8848   57.6120 O   0  0  0  0  0  0  0  0  0  0  0  0
   18.8590   -1.2510   58.7721 C   0  0  0  0  0  0  0  0  0  0  0  0
   18.6792   -0.0681   56.6732 C   0  0  0  0  0  0  0  0  0  0  0  0
   20.1458   -1.6652   58.4285 C   0  0  0  0  0  0  0  0  0  0  0  0
   19.9661   -0.4823   56.3295 C   0  0  0  0  0  0  0  0  0  0  0  0
   18.1257   -0.4524   57.8944 C   0  0  0  0  0  0  0  0  0  0  0  0
   20.6994   -1.2808   57.2072 C   0  0  0  0  0  0  0  0  0  0  0  0
   21.9352   -1.6785   56.8772 F   0  0  0  0  0  0  0  0  0  0  0  0
 22 24  2  0  0  0
 22 26  1  0  0  0
 23 25  1  0  0  0
 23 26  2  0  0  0
 10 12  2  0  0  0
 10 14  1  0  0  0
 11 13  1  0  0  0
 11 14  2  0  0  0
 24 27  1  0  0  0
 25 27  2  0  0  0
 12 15  1  0  0  0
 13 15  2  0  0  0
 26 20  1  0  0  0
 14  5  1  0  0  0
 27 28  1  0  0  0
 15 16  1  0  0  0
 20 19  1  0  0  0
 20 21  2  0  0  0
  1  3  1  0  0  0
  1  5  1  0  0  0
  2  4  1  0  0  0
  2  5  1  0  0  0
  3  6  1  0  0  0
  4  6  1  0  0  0
  5  7  1  0  0  0
 19 18  1  0  0  0
 18 17  1  0  0  0
 17  6  1  0  0  0
  6  8  1  0  0  0
  7  9  1  0  0  0
M  CHG 1   6   1
M  END
> <minimizedAffinity>
-9.66844

> <CNNscore>
0.6047248840

> <CNNaffinity>
6.1785879135

> <CNN_VS>
3.7363457680

> <CNNaffinity_variance>
0.0330877826

$$$$



 28 30  0  0  0  0  0  0  0  0999 V2000
   15.3053   -0.8389   59.5499 C   0  0  0  0  0  0  0  0  0  0  0  0
   15.5208    1.2760   58.1986 C   0  0  0  0  0  0  0  0  0  0  0  0
   14.0183   -0.3037   60.1718 C   0  0  0  0  0  0  0  0  0  0  0  0
   14.2216    1.7903   58.8138 C   0  0  0  0  0  0  0  0  0  0  0  0
   16.2714    0.2864   59.1164 C   0  0  0  0  0  0  0  0  0  0  0  0
   13.3289    0.6517   59.2319 N   0  0  0  0  0  0  0  0  0  0  0  0
   16.6402    0.9972   60.3110 O   0  0  0  0  0  0  0  0  0  0  0  0
   12.5534    1.0964   59.8021 H   0  0  0  0  0  0  0  0  0  0  0  0
   17.1938    1.7430   60.0305 H   0  0  0  0  0  0  0  0  0  0  0  0
   18.4013   -1.0861   59.1000 C   0  0  0  0  0  0  0  0  0  0  0  0
   17.8971    0.2817   57.1733 C   0  0  0  0  0  0  0  0  0  0  0  0
   19.5778   -1.5164   58.4866 C   0  0  0  0  0  0  0  0  0  0  0  0
   19.0736   -0.1487   56.5599 C   0  0  0  0  0  0  0  0  0  0  0  0
   17.5609   -0.1871   58.4433 C   0  0  0  0  0  0  0  0  0  0  0  0
   19.9139   -1.0478   57.2166 C   0  0  0  0  0  0  0  0  0  0  0  0
   21.3654   -1.5786   56.4602 Cl  0  0  0  0  0  0  0  0  0  0  0  0
   12.6305   -0.0228   58.0819 C   0  0  0  0  0  0  0  0  0  0  0  0
   11.6504    0.9548   57.4516 C   0  0  0  0  0  0  0  0  0  0  0  0
   10.8629    1.7109   58.5229 C   0  0  0  0  0  0  0  0  0  0  0  0
    9.7652    0.8572   59.1397 C   0  0  0  0  0  0  0  0  0  0  0  0
    8.8055    0.4557   58.4856 O   0  0  0  0  0  0  0  0  0  0  0  0
    9.5208    1.4335   61.5612 C   0  0  0  0  0  0  0  0  0  0  0  0
   10.2981   -0.7736   60.9599 C   0  0  0  0  0  0  0  0  0  0  0  0
    9.6127    1.0978   62.9119 C   0  0  0  0  0  0  0  0  0  0  0  0
   10.3900   -1.1093   62.3106 C   0  0  0  0  0  0  0  0  0  0  0  0
    9.8635    0.4976   60.5851 C   0  0  0  0  0  0  0  0  0  0  0  0
   10.0473   -0.1735   63.2867 C   0  0  0  0  0  0  0  0  0  0  0  0
   10.1356   -0.4959   64.5838 F   0  0  0  0  0  0  0  0  0  0  0  0
 22 24  2  0  0  0
 22 26  1  0  0  0
 23 25  1  0  0  0
 23 26  2  0  0  0
 10 12  2  0  0  0
 10 14  1  0  0  0
 11 13  1  0  0  0
 11 14  2  0  0  0
 24 27  1  0  0  0
 25 27  2  0  0  0
 12 15  1  0  0  0
 13 15  2  0  0  0
 26 20  1  0  0  0
 14  5  1  0  0  0
 27 28  1  0  0  0
 15 16  1  0  0  0
 20 19  1  0  0  0
 20 21  2  0  0  0
  1  3  1  0  0  0
  1  5  1  0  0  0
  2  4  1  0  0  0
  2  5  1  0  0  0
  3  6  1  0  0  0
  4  6  1  0  0  0
  5  7  1  0  0  0
 19 18  1  0  0  0
 18 17  1  0  0  0
 17  6  1  0  0  0
  6  8  1  0  0  0
  7  9  1  0  0  0
M  CHG 1   6   1
M  END
> <minimizedAffinity>
-9.31484

> <CNNscore>
0.5904408693

> <CNNaffinity>
6.6324782372

> <CNN_VS>
3.9160861969

> <CNNaffinity_variance>
0.0265062936

$$$$



 28 30  0  0  0  0  0  0  0  0999 V2000
   11.1083    0.9133   59.8170 C   0  0  0  0  0  0  0  0  0  0  0  0
   12.8077   -0.6080   60.8860 C   0  0  0  0  0  0  0  0  0  0  0  0
   12.2386    1.7510   59.2253 C   0  0  0  0  0  0  0  0  0  0  0  0
   13.9282    0.2273   60.2713 C   0  0  0  0  0  0  0  0  0  0  0  0
   11.5153    0.2022   61.1271 C   0  0  0  0  0  0  0  0  0  0  0  0
   13.4697    0.9088   59.0090 N   0  0  0  0  0  0  0  0  0  0  0  0
   11.8222    1.2352   62.0795 O   0  0  0  0  0  0  0  0  0  0  0  0
   14.2399    1.5949   58.7634 H   0  0  0  0  0  0  0  0  0  0  0  0
   12.1406    0.7890   62.8801 H   0  0  0  0  0  0  0  0  0  0  0  0
    9.8388   -1.6921   60.9801 C   0  0  0  0  0  0  0  0  0  0  0  0
   10.0518   -0.5015   63.0716 C   0  0  0  0  0  0  0  0  0  0  0  0
    8.8548   -2.5048   61.5429 C   0  0  0  0  0  0  0  0  0  0  0  0
    9.0677   -1.3143   63.6345 C   0  0  0  0  0  0  0  0  0  0  0  0
   10.4373   -0.6904   61.7445 C   0  0  0  0  0  0  0  0  0  0  0  0
    8.4693   -2.3159   62.8701 C   0  0  0  0  0  0  0  0  0  0  0  0
    7.2553   -3.3185   63.5641 Cl  0  0  0  0  0  0  0  0  0  0  0  0
   13.3759   -0.0137   57.8236 C   0  0  0  0  0  0  0  0  0  0  0  0
   14.5164    0.2904   56.8641 C   0  0  0  0  0  0  0  0  0  0  0  0
   15.7172   -0.6182   57.1325 C   0  0  0  0  0  0  0  0  0  0  0  0
   16.8718    0.1309   57.7804 C   0  0  0  0  0  0  0  0  0  0  0  0
   16.6977    1.1496   58.4452 O   0  0  0  0  0  0  0  0  0  0  0  0
   18.9511   -0.1408   56.4171 C   0  0  0  0  0  0  0  0  0  0  0  0
   18.8591   -1.1376   58.6159 C   0  0  0  0  0  0  0  0  0  0  0  0
   20.2460   -0.6312   56.2489 C   0  0  0  0  0  0  0  0  0  0  0  0
   20.1541   -1.6281   58.4478 C   0  0  0  0  0  0  0  0  0  0  0  0
   18.2576   -0.3940   57.6007 C   0  0  0  0  0  0  0  0  0  0  0  0
   20.8475   -1.3749   57.2642 C   0  0  0  0  0  0  0  0  0  0  0  0
   22.0910   -1.8459   57.1027 F   0  0  0  0  0  0  0  0  0  0  0  0
 22 24  2  0  0  0
 22 26  1  0  0  0
 23 25  1  0  0  0
 23 26  2  0  0  0
 10 12  2  0  0  0
 10 14  1  0  0  0
 11 13  1  0  0  0
 11 14  2  0  0  0
 24 27  1  0  0  0
 25 27  2  0  0  0
 12 15  1  0  0  0
 13 15  2  0  0  0
 26 20  1  0  0  0
 14  5  1  0  0  0
 27 28  1  0  0  0
 15 16  1  0  0  0
 20 19  1  0  0  0
 20 21  2  0  0  0
  1  3  1  0  0  0
  1  5  1  0  0  0
  2  4  1  0  0  0
  2  5  1  0  0  0
  3  6  1  0  0  0
  4  6  1  0  0  0
  5  7  1  0  0  0
 19 18  1  0  0  0
 18 17  1  0  0  0
 17  6  1  0  0  0
  6  8  1  0  0  0
  7  9  1  0  0  0
M  CHG 1   6   1
M  END
> <minimizedAffinity>
-9.89191

> <CNNscore>
0.4914994836

> <CNNaffinity>
6.1558737755

> <CNN_VS>
3.0256087780

> <CNNaffinity_variance>
0.0117896060

$$$$



 28 30  0  0  0  0  0  0  0  0999 V2000
   10.2618   -1.3880   57.5631 C   0  0  0  0  0  0  0  0  0  0  0  0
   11.3033    0.1930   59.2246 C   0  0  0  0  0  0  0  0  0  0  0  0
   10.7679   -0.5118   56.4205 C   0  0  0  0  0  0  0  0  0  0  0  0
   11.8205    1.0494   58.0713 C   0  0  0  0  0  0  0  0  0  0  0  0
   10.0224   -0.5911   58.8652 C   0  0  0  0  0  0  0  0  0  0  0  0
   12.0186    0.2247   56.8268 N   0  0  0  0  0  0  0  0  0  0  0  0
    8.9917    0.3698   58.5778 O   0  0  0  0  0  0  0  0  0  0  0  0
   12.1974    0.9244   56.0505 H   0  0  0  0  0  0  0  0  0  0  0  0
    8.8883    0.9128   59.3752 H   0  0  0  0  0  0  0  0  0  0  0  0
    8.9937   -2.6836   59.8573 C   0  0  0  0  0  0  0  0  0  0  0  0
    9.6960   -0.9230   61.3555 C   0  0  0  0  0  0  0  0  0  0  0  0
    8.5686   -3.4421   60.9479 C   0  0  0  0  0  0  0  0  0  0  0  0
    9.2709   -1.6816   62.4462 C   0  0  0  0  0  0  0  0  0  0  0  0
    9.5575   -1.4241   60.0611 C   0  0  0  0  0  0  0  0  0  0  0  0
    8.7072   -2.9411   62.2423 C   0  0  0  0  0  0  0  0  0  0  0  0
    8.1825   -3.8769   63.5875 Cl  0  0  0  0  0  0  0  0  0  0  0  0
   13.2497   -0.6403   56.8642 C   0  0  0  0  0  0  0  0  0  0  0  0
   14.4632    0.2322   57.1473 C   0  0  0  0  0  0  0  0  0  0  0  0
   15.7601   -0.5639   56.9932 C   0  0  0  0  0  0  0  0  0  0  0  0
   16.8244   -0.1276   57.9888 C   0  0  0  0  0  0  0  0  0  0  0  0
   16.5504    0.5266   58.9923 O   0  0  0  0  0  0  0  0  0  0  0  0
   18.9433   -1.2639   58.6779 C   0  0  0  0  0  0  0  0  0  0  0  0
   18.8726   -0.1165   56.5530 C   0  0  0  0  0  0  0  0  0  0  0  0
   20.2702   -1.6222   58.4403 C   0  0  0  0  0  0  0  0  0  0  0  0
   20.1995   -0.4748   56.3153 C   0  0  0  0  0  0  0  0  0  0  0  0
   18.2444   -0.5111   57.7342 C   0  0  0  0  0  0  0  0  0  0  0  0
   20.8984   -1.2277   57.2590 C   0  0  0  0  0  0  0  0  0  0  0  0
   22.1726   -1.5717   57.0308 F   0  0  0  0  0  0  0  0  0  0  0  0
 22 24  2  0  0  0
 22 26  1  0  0  0
 23 25  1  0  0  0
 23 26  2  0  0  0
 10 12  2  0  0  0
 10 14  1  0  0  0
 11 13  1  0  0  0
 11 14  2  0  0  0
 24 27  1  0  0  0
 25 27  2  0  0  0
 12 15  1  0  0  0
 13 15  2  0  0  0
 26 20  1  0  0  0
 14  5  1  0  0  0
 27 28  1  0  0  0
 15 16  1  0  0  0
 20 19  1  0  0  0
 20 21  2  0  0  0
  1  3  1  0  0  0
  1  5  1  0  0  0
  2  4  1  0  0  0
  2  5  1  0  0  0
  3  6  1  0  0  0
  4  6  1  0  0  0
  5  7  1  0  0  0
 19 18  1  0  0  0
 18 17  1  0  0  0
 17  6  1  0  0  0
  6  8  1  0  0  0
  7  9  1  0  0  0
M  CHG 1   6   1
M  END
> <minimizedAffinity>
-9.86943

> <CNNscore>
0.4076618552

> <CNNaffinity>
5.9200315475

> <CNN_VS>
2.4133710861

> <CNNaffinity_variance>
0.0772182718

$$$$



 28 30  0  0  0  0  0  0  0  0999 V2000
   15.3040   -0.7987   59.8088 C   0  0  0  0  0  0  0  0  0  0  0  0
   15.2927    1.1314   58.1901 C   0  0  0  0  0  0  0  0  0  0  0  0
   14.0221   -0.2664   60.4437 C   0  0  0  0  0  0  0  0  0  0  0  0
   13.9997    1.6413   58.8217 C   0  0  0  0  0  0  0  0  0  0  0  0
   16.1627    0.3174   59.1727 C   0  0  0  0  0  0  0  0  0  0  0  0
   13.2140    0.5146   59.4393 N   0  0  0  0  0  0  0  0  0  0  0  0
   16.5515    1.1988   60.2405 O   0  0  0  0  0  0  0  0  0  0  0  0
   12.4446    0.9817   59.9999 H   0  0  0  0  0  0  0  0  0  0  0  0
   17.0346    1.9341   59.8316 H   0  0  0  0  0  0  0  0  0  0  0  0
   17.7506    0.2954   57.1981 C   0  0  0  0  0  0  0  0  0  0  0  0
   18.2929   -1.0532   59.1280 C   0  0  0  0  0  0  0  0  0  0  0  0
   18.9145   -0.1416   56.5657 C   0  0  0  0  0  0  0  0  0  0  0  0
   19.4569   -1.4902   58.4955 C   0  0  0  0  0  0  0  0  0  0  0  0
   17.4399   -0.1603   58.4793 C   0  0  0  0  0  0  0  0  0  0  0  0
   19.7676   -1.0344   57.2144 C   0  0  0  0  0  0  0  0  0  0  0  0
   21.2032   -1.5735   56.4339 Cl  0  0  0  0  0  0  0  0  0  0  0  0
   12.4972   -0.3453   58.4334 C   0  0  0  0  0  0  0  0  0  0  0  0
   11.3973    0.4721   57.7730 C   0  0  0  0  0  0  0  0  0  0  0  0
   10.4064    1.0003   58.8116 C   0  0  0  0  0  0  0  0  0  0  0  0
   10.0580   -0.0468   59.8587 C   0  0  0  0  0  0  0  0  0  0  0  0
   10.5639   -0.0434   60.9786 O   0  0  0  0  0  0  0  0  0  0  0  0
    9.0083   -2.2807   60.2628 C   0  0  0  0  0  0  0  0  0  0  0  0
    8.2035   -0.9278   58.4300 C   0  0  0  0  0  0  0  0  0  0  0  0
    8.0836   -3.2727   59.9366 C   0  0  0  0  0  0  0  0  0  0  0  0
    7.2787   -1.9198   58.1038 C   0  0  0  0  0  0  0  0  0  0  0  0
    9.0682   -1.1082   59.5095 C   0  0  0  0  0  0  0  0  0  0  0  0
    7.2188   -3.0923   58.8571 C   0  0  0  0  0  0  0  0  0  0  0  0
    6.3308   -4.0449   58.5438 F   0  0  0  0  0  0  0  0  0  0  0  0
 22 24  2  0  0  0
 22 26  1  0  0  0
 23 25  1  0  0  0
 23 26  2  0  0  0
 10 12  2  0  0  0
 10 14  1  0  0  0
 11 13  1  0  0  0
 11 14  2  0  0  0
 24 27  1  0  0  0
 25 27  2  0  0  0
 12 15  1  0  0  0
 13 15  2  0  0  0
 26 20  1  0  0  0
 14  5  1  0  0  0
 27 28  1  0  0  0
 15 16  1  0  0  0
 20 19  1  0  0  0
 20 21  2  0  0  0
  1  3  1  0  0  0
  1  5  1  0  0  0
  2  4  1  0  0  0
  2  5  1  0  0  0
  3  6  1  0  0  0
  4  6  1  0  0  0
  5  7  1  0  0  0
 19 18  1  0  0  0
 18 17  1  0  0  0
 17  6  1  0  0  0
  6  8  1  0  0  0
  7  9  1  0  0  0
M  CHG 1   6   1
M  END
> <minimizedAffinity>
-9.11811

> <CNNscore>
0.4017738402

> <CNNaffinity>
6.3246927261

> <CNN_VS>
2.5410959721

> <CNNaffinity_variance>
0.0219356827

$$$$



 28 30  0  0  0  0  0  0  0  0999 V2000
   10.9936   -0.9910   60.6002 C   0  0  0  0  0  0  0  0  0  0  0  0
   10.8882   -0.2052   62.9912 C   0  0  0  0  0  0  0  0  0  0  0  0
   11.9970    0.1156   60.2867 C   0  0  0  0  0  0  0  0  0  0  0  0
   11.9076    0.8845   62.6681 C   0  0  0  0  0  0  0  0  0  0  0  0
   10.0474   -0.6257   61.7660 C   0  0  0  0  0  0  0  0  0  0  0  0
   12.7893    0.4810   61.5157 N   0  0  0  0  0  0  0  0  0  0  0  0
    9.2940    0.5236   61.3418 O   0  0  0  0  0  0  0  0  0  0  0  0
   13.3277    1.3559   61.2530 H   0  0  0  0  0  0  0  0  0  0  0  0
    8.7481    0.7921   62.0976 H   0  0  0  0  0  0  0  0  0  0  0  0
    8.5856   -1.7986   63.4713 C   0  0  0  0  0  0  0  0  0  0  0  0
    8.5992   -2.6262   61.2015 C   0  0  0  0  0  0  0  0  0  0  0  0
    7.6752   -2.7931   63.8285 C   0  0  0  0  0  0  0  0  0  0  0  0
    7.6887   -3.6208   61.5586 C   0  0  0  0  0  0  0  0  0  0  0  0
    9.0476   -1.7151   62.1578 C   0  0  0  0  0  0  0  0  0  0  0  0
    7.2267   -3.7041   62.8721 C   0  0  0  0  0  0  0  0  0  0  0  0
    6.1037   -4.9310   63.3130 Cl  0  0  0  0  0  0  0  0  0  0  0  0
   13.8419   -0.5294   61.8845 C   0  0  0  0  0  0  0  0  0  0  0  0
   14.6581   -0.8727   60.6476 C   0  0  0  0  0  0  0  0  0  0  0  0
   15.5168    0.3147   60.2090 C   0  0  0  0  0  0  0  0  0  0  0  0
   16.6473   -0.1046   59.2814 C   0  0  0  0  0  0  0  0  0  0  0  0
   17.7275   -0.5053   59.7086 O   0  0  0  0  0  0  0  0  0  0  0  0
   15.3501   -0.6890   57.2243 C   0  0  0  0  0  0  0  0  0  0  0  0
   17.3087    0.7092   57.0105 C   0  0  0  0  0  0  0  0  0  0  0  0
   15.1476   -0.6161   55.8462 C   0  0  0  0  0  0  0  0  0  0  0  0
   17.1063    0.7822   55.6323 C   0  0  0  0  0  0  0  0  0  0  0  0
   16.4307   -0.0263   57.8065 C   0  0  0  0  0  0  0  0  0  0  0  0
   16.0256    0.1195   55.0502 C   0  0  0  0  0  0  0  0  0  0  0  0
   15.8312    0.1895   53.7268 F   0  0  0  0  0  0  0  0  0  0  0  0
 22 24  2  0  0  0
 22 26  1  0  0  0
 23 25  1  0  0  0
 23 26  2  0  0  0
 10 12  2  0  0  0
 10 14  1  0  0  0
 11 13  1  0  0  0
 11 14  2  0  0  0
 24 27  1  0  0  0
 25 27  2  0  0  0
 12 15  1  0  0  0
 13 15  2  0  0  0
 26 20  1  0  0  0
 14  5  1  0  0  0
 27 28  1  0  0  0
 15 16  1  0  0  0
 20 19  1  0  0  0
 20 21  2  0  0  0
  1  3  1  0  0  0
  1  5  1  0  0  0
  2  4  1  0  0  0
  2  5  1  0  0  0
  3  6  1  0  0  0
  4  6  1  0  0  0
  5  7  1  0  0  0
 19 18  1  0  0  0
 18 17  1  0  0  0
 17  6  1  0  0  0
  6  8  1  0  0  0
  7  9  1  0  0  0
M  CHG 1   6   1
M  END
> <minimizedAffinity>
-9.06609

> <CNNscore>
0.3743009865

> <CNNaffinity>
5.9526834488

> <CNN_VS>
2.2280952930

> <CNNaffinity_variance>
0.0881820843

$$$$



 21 24  0  0  0  0  0  0  0  0999 V2000
   20.5689   -0.6877   57.1898 C   0  0  0  0  0  0  0  0  0  0  0  0
   20.1499   -1.6199   58.1291 C   0  0  0  0  0  0  0  0  0  0  0  0
   15.2670   -0.4406   53.5954 C   0  0  0  0  0  0  0  0  0  0  0  0
   19.6493    0.2065   56.6471 C   0  0  0  0  0  0  0  0  0  0  0  0
   18.8138   -1.6488   58.5287 C   0  0  0  0  0  0  0  0  0  0  0  0
   16.2495    0.2869   54.2481 C   0  0  0  0  0  0  0  0  0  0  0  0
   14.3353   -1.0944   54.3744 C   0  0  0  0  0  0  0  0  0  0  0  0
   18.2984    0.1839   57.0402 C   0  0  0  0  0  0  0  0  0  0  0  0
   17.8629   -0.7490   58.0001 C   0  0  0  0  0  0  0  0  0  0  0  0
   16.2728    0.3367   55.6468 C   0  0  0  0  0  0  0  0  0  0  0  0
   15.3043   -0.3739   56.3725 C   0  0  0  0  0  0  0  0  0  0  0  0
   17.3342    1.1214   56.3689 C   0  0  0  0  0  0  0  0  0  0  0  0
   13.9886   -0.3963   58.3991 C   0  0  0  0  0  0  0  0  0  0  0  0
   13.9953    0.2684   59.7666 C   0  0  0  0  0  0  0  0  0  0  0  0
   16.4459   -0.1510   59.9463 C   0  0  0  0  0  0  0  0  0  0  0  0
   16.4436   -0.8318   58.5646 C   0  0  0  0  0  0  0  0  0  0  0  0
   15.0867    0.2251   62.0038 C   0  0  0  0  0  0  0  0  0  0  0  0
   14.3289   -1.0707   55.7262 N   0  0  0  0  0  0  0  0  0  0  0  0
   15.3125   -0.2943   57.7733 N   0  0  0  0  0  0  0  0  0  0  0  0
   15.0982   -0.3192   60.6023 N   0  0  0  0  0  0  0  0  0  0  0  0
   14.9198   -1.3300   60.6808 H   0  0  0  0  0  0  0  0  0  0  0  0
  1  2  1  0  0  0
  1  4  2  0  0  0
  2  5  2  0  0  0
  3  6  2  0  0  0
  3  7  1  0  0  0
  4  8  1  0  0  0
  5  9  1  0  0  0
  6 10  1  0  0  0
  7 18  2  0  0  0
  8  9  2  0  0  0
  8 12  1  0  0  0
  9 16  1  0  0  0
 10 11  2  0  0  0
 10 12  1  0  0  0
 11 18  1  0  0  0
 11 19  1  0  0  0
 13 14  1  0  0  0
 13 19  1  0  0  0
 14 20  1  0  0  0
 15 16  1  0  0  0
 15 20  1  0  0  0
 16 19  1  0  0  0
 17 20  1  0  0  0
 20 21  1  0  0  0
M  CHG 1  20   1
M  END
> <minimizedAffinity>
-7.89228

> <CNNscore>
0.6709638834

> <CNNaffinity>
6.4848737717

> <CNN_VS>
4.3511161804

> <CNNaffinity_variance>
0.1803493798

$$$$



 21 24  0  0  0  0  0  0  0  0999 V2000
    8.9980   -3.6731   59.8194 C   0  0  0  0  0  0  0  0  0  0  0  0
    7.6910   -3.4499   59.4086 C   0  0  0  0  0  0  0  0  0  0  0  0
    8.9290   -0.2767   65.2554 C   0  0  0  0  0  0  0  0  0  0  0  0
    9.2877   -3.7674   61.1784 C   0  0  0  0  0  0  0  0  0  0  0  0
    6.6767   -3.3304   60.3586 C   0  0  0  0  0  0  0  0  0  0  0  0
    9.2794   -1.4734   64.6508 C   0  0  0  0  0  0  0  0  0  0  0  0
    7.5857   -0.0299   65.4481 C   0  0  0  0  0  0  0  0  0  0  0  0
    8.2730   -3.6447   62.1455 C   0  0  0  0  0  0  0  0  0  0  0  0
    6.9419   -3.4295   61.7418 C   0  0  0  0  0  0  0  0  0  0  0  0
    8.2862   -2.3782   64.2582 C   0  0  0  0  0  0  0  0  0  0  0  0
    6.9385   -2.0469   64.4665 C   0  0  0  0  0  0  0  0  0  0  0  0
    8.6518   -3.6806   63.5996 C   0  0  0  0  0  0  0  0  0  0  0  0
    4.7434   -2.9398   64.9388 C   0  0  0  0  0  0  0  0  0  0  0  0
    4.0250   -4.2788   64.8857 C   0  0  0  0  0  0  0  0  0  0  0  0
    5.0151   -4.7087   62.6388 C   0  0  0  0  0  0  0  0  0  0  0  0
    5.7395   -3.3501   62.6841 C   0  0  0  0  0  0  0  0  0  0  0  0
    2.9432   -5.9061   63.3430 C   0  0  0  0  0  0  0  0  0  0  0  0
    6.6001   -0.8787   65.0794 N   0  0  0  0  0  0  0  0  0  0  0  0
    5.9483   -2.9712   64.1009 N   0  0  0  0  0  0  0  0  0  0  0  0
    3.7473   -4.6404   63.4532 N   0  0  0  0  0  0  0  0  0  0  0  0
    3.1665   -3.8905   63.0533 H   0  0  0  0  0  0  0  0  0  0  0  0
  1  2  1  0  0  0
  1  4  2  0  0  0
  2  5  2  0  0  0
  3  6  2  0  0  0
  3  7  1  0  0  0
  4  8  1  0  0  0
  5  9  1  0  0  0
  6 10  1  0  0  0
  7 18  2  0  0  0
  8  9  2  0  0  0
  8 12  1  0  0  0
  9 16  1  0  0  0
 10 11  2  0  0  0
 10 12  1  0  0  0
 11 18  1  0  0  0
 11 19  1  0  0  0
 13 14  1  0  0  0
 13 19  1  0  0  0
 14 20  1  0  0  0
 15 16  1  0  0  0
 15 20  1  0  0  0
 16 19  1  0  0  0
 17 20  1  0  0  0
 20 21  1  0  0  0
M  CHG 1  20   1
M  END
> <minimizedAffinity>
-7.89578

> <CNNscore>
0.6303408146

> <CNNaffinity>
5.2086458206

> <CNN_VS>
3.2832219601

> <CNNaffinity_variance>
0.0615717396

$$$$



 21 24  0  0  0  0  0  0  0  0999 V2000
    6.9870   -3.9690   61.9046 C   0  0  0  0  0  0  0  0  0  0  0  0
    8.1946   -3.9329   61.2212 C   0  0  0  0  0  0  0  0  0  0  0  0
    9.0145   -1.8980   67.6223 C   0  0  0  0  0  0  0  0  0  0  0  0
    6.7213   -3.0181   62.8870 C   0  0  0  0  0  0  0  0  0  0  0  0
    9.1289   -2.9403   61.5168 C   0  0  0  0  0  0  0  0  0  0  0  0
    8.0544   -1.7796   66.6299 C   0  0  0  0  0  0  0  0  0  0  0  0
   10.2780   -1.4184   67.3466 C   0  0  0  0  0  0  0  0  0  0  0  0
    7.6581   -2.0147   63.1960 C   0  0  0  0  0  0  0  0  0  0  0  0
    8.8817   -1.9601   62.5024 C   0  0  0  0  0  0  0  0  0  0  0  0
    8.3834   -1.1933   65.4022 C   0  0  0  0  0  0  0  0  0  0  0  0
    9.6971   -0.7493   65.1866 C   0  0  0  0  0  0  0  0  0  0  0  0
    7.3517   -1.0593   64.3151 C   0  0  0  0  0  0  0  0  0  0  0  0
   11.0568    0.8959   64.0536 C   0  0  0  0  0  0  0  0  0  0  0  0
   10.9254    1.8837   62.9053 C   0  0  0  0  0  0  0  0  0  0  0  0
    9.8146    0.1239   61.5330 C   0  0  0  0  0  0  0  0  0  0  0  0
    9.9515   -0.8830   62.6906 C   0  0  0  0  0  0  0  0  0  0  0  0
   10.9095    2.0709   60.4227 C   0  0  0  0  0  0  0  0  0  0  0  0
   10.6316   -0.8494   66.1722 N   0  0  0  0  0  0  0  0  0  0  0  0
   10.0133   -0.1329   63.9665 N   0  0  0  0  0  0  0  0  0  0  0  0
   10.9303    1.1366   61.6006 N   0  0  0  0  0  0  0  0  0  0  0  0
   11.8181    0.6185   61.5459 H   0  0  0  0  0  0  0  0  0  0  0  0
  1  2  1  0  0  0
  1  4  2  0  0  0
  2  5  2  0  0  0
  3  6  2  0  0  0
  3  7  1  0  0  0
  4  8  1  0  0  0
  5  9  1  0  0  0
  6 10  1  0  0  0
  7 18  2  0  0  0
  8  9  2  0  0  0
  8 12  1  0  0  0
  9 16  1  0  0  0
 10 11  2  0  0  0
 10 12  1  0  0  0
 11 18  1  0  0  0
 11 19  1  0  0  0
 13 14  1  0  0  0
 13 19  1  0  0  0
 14 20  1  0  0  0
 15 16  1  0  0  0
 15 20  1  0  0  0
 16 19  1  0  0  0
 17 20  1  0  0  0
 20 21  1  0  0  0
M  CHG 1  20   1
M  END
> <minimizedAffinity>
-6.93084

> <CNNscore>
0.5293903351

> <CNNaffinity>
5.7479982376

> <CNN_VS>
3.0429346561

> <CNNaffinity_variance>
0.0553458408

$$$$



 21 24  0  0  0  0  0  0  0  0999 V2000
    8.0556   -0.3065   66.8127 C   0  0  0  0  0  0  0  0  0  0  0  0
    8.0475    0.8077   65.9849 C   0  0  0  0  0  0  0  0  0  0  0  0
    6.0569   -4.6985   62.5929 C   0  0  0  0  0  0  0  0  0  0  0  0
    8.3815   -1.5544   66.2871 C   0  0  0  0  0  0  0  0  0  0  0  0
    8.3742    0.6712   64.6358 C   0  0  0  0  0  0  0  0  0  0  0  0
    6.9786   -4.3868   63.5797 C   0  0  0  0  0  0  0  0  0  0  0  0
    6.1687   -4.0403   61.3860 C   0  0  0  0  0  0  0  0  0  0  0  0
    8.7089   -1.7043   64.9268 C   0  0  0  0  0  0  0  0  0  0  0  0
    8.7156   -0.5806   64.0792 C   0  0  0  0  0  0  0  0  0  0  0  0
    7.9738   -3.4336   63.3339 C   0  0  0  0  0  0  0  0  0  0  0  0
    8.0100   -2.7884   62.0882 C   0  0  0  0  0  0  0  0  0  0  0  0
    8.9805   -3.0842   64.3963 C   0  0  0  0  0  0  0  0  0  0  0  0
    9.4573   -1.7855   60.4334 C   0  0  0  0  0  0  0  0  0  0  0  0
   10.8777   -1.2514   60.3390 C   0  0  0  0  0  0  0  0  0  0  0  0
   10.5629   -0.0622   62.5071 C   0  0  0  0  0  0  0  0  0  0  0  0
    9.1208   -0.5946   62.6042 C   0  0  0  0  0  0  0  0  0  0  0  0
   12.3227    0.6941   60.9091 C   0  0  0  0  0  0  0  0  0  0  0  0
    7.1144   -3.1129   61.1149 N   0  0  0  0  0  0  0  0  0  0  0  0
    9.0290   -1.8576   61.8356 N   0  0  0  0  0  0  0  0  0  0  0  0
   10.9651    0.0654   61.0589 N   0  0  0  0  0  0  0  0  0  0  0  0
   10.2961    0.7065   60.6106 H   0  0  0  0  0  0  0  0  0  0  0  0
  1  2  1  0  0  0
  1  4  2  0  0  0
  2  5  2  0  0  0
  3  6  2  0  0  0
  3  7  1  0  0  0
  4  8  1  0  0  0
  5  9  1  0  0  0
  6 10  1  0  0  0
  7 18  2  0  0  0
  8  9  2  0  0  0
  8 12  1  0  0  0
  9 16  1  0  0  0
 10 11  2  0  0  0
 10 12  1  0  0  0
 11 18  1  0  0  0
 11 19  1  0  0  0
 13 14  1  0  0  0
 13 19  1  0  0  0
 14 20  1  0  0  0
 15 16  1  0  0  0
 15 20  1  0  0  0
 16 19  1  0  0  0
 17 20  1  0  0  0
 20 21  1  0  0  0
M  CHG 1  20   1
M  END
> <minimizedAffinity>
-7.25156

> <CNNscore>
0.4982540905

> <CNNaffinity>
5.5507259369

> <CNN_VS>
2.7656719685

> <CNNaffinity_variance>
0.1228673086

$$$$



 21 24  0  0  0  0  0  0  0  0999 V2000
    9.3790   -0.3484   57.8750 C   0  0  0  0  0  0  0  0  0  0  0  0
    9.8339    0.7463   58.5974 C   0  0  0  0  0  0  0  0  0  0  0  0
   13.3874    0.0134   52.8857 C   0  0  0  0  0  0  0  0  0  0  0  0
   10.2796   -1.1068   57.1310 C   0  0  0  0  0  0  0  0  0  0  0  0
   11.1897    1.0732   58.5799 C   0  0  0  0  0  0  0  0  0  0  0  0
   12.8068   -0.8093   53.8379 C   0  0  0  0  0  0  0  0  0  0  0  0
   14.3370    0.9158   53.3175 C   0  0  0  0  0  0  0  0  0  0  0  0
   11.6488   -0.7838   57.1032 C   0  0  0  0  0  0  0  0  0  0  0  0
   12.1248    0.3168   57.8404 C   0  0  0  0  0  0  0  0  0  0  0  0
   13.1872   -0.7048   55.1809 C   0  0  0  0  0  0  0  0  0  0  0  0
   14.1440    0.2539   55.5481 C   0  0  0  0  0  0  0  0  0  0  0  0
   12.5644   -1.5906   56.2257 C   0  0  0  0  0  0  0  0  0  0  0  0
   15.9375    0.7539   57.0882 C   0  0  0  0  0  0  0  0  0  0  0  0
   16.4566    0.2583   58.4286 C   0  0  0  0  0  0  0  0  0  0  0  0
   14.1237    0.2220   59.3062 C   0  0  0  0  0  0  0  0  0  0  0  0
   13.5931    0.7308   57.9526 C   0  0  0  0  0  0  0  0  0  0  0  0
   16.0521    0.3451   60.8837 C   0  0  0  0  0  0  0  0  0  0  0  0
   14.7263    1.0461   54.6057 N   0  0  0  0  0  0  0  0  0  0  0  0
   14.5454    0.3324   56.8901 N   0  0  0  0  0  0  0  0  0  0  0  0
   15.5323    0.7160   59.5224 N   0  0  0  0  0  0  0  0  0  0  0  0
   15.5043    1.7446   59.4916 H   0  0  0  0  0  0  0  0  0  0  0  0
  1  2  1  0  0  0
  1  4  2  0  0  0
  2  5  2  0  0  0
  3  6  2  0  0  0
  3  7  1  0  0  0
  4  8  1  0  0  0
  5  9  1  0  0  0
  6 10  1  0  0  0
  7 18  2  0  0  0
  8  9  2  0  0  0
  8 12  1  0  0  0
  9 16  1  0  0  0
 10 11  2  0  0  0
 10 12  1  0  0  0
 11 18  1  0  0  0
 11 19  1  0  0  0
 13 14  1  0  0  0
 13 19  1  0  0  0
 14 20  1  0  0  0
 15 16  1  0  0  0
 15 20  1  0  0  0
 16 19  1  0  0  0
 17 20  1  0  0  0
 20 21  1  0  0  0
M  CHG 1  20   1
M  END
> <minimizedAffinity>
-7.97703

> <CNNscore>
0.4870777130

> <CNNaffinity>
5.7100749016

> <CNN_VS>
2.7812502384

> <CNNaffinity_variance>
0.2832136750

$$$$



 21 24  0  0  0  0  0  0  0  0999 V2000
    5.5752   -1.0146   65.2890 C   0  0  0  0  0  0  0  0  0  0  0  0
    5.8080    0.3271   65.0201 C   0  0  0  0  0  0  0  0  0  0  0  0
    8.3167   -3.5649   60.0860 C   0  0  0  0  0  0  0  0  0  0  0  0
    6.5092   -1.9696   64.8947 C   0  0  0  0  0  0  0  0  0  0  0  0
    6.9786    0.7098   64.3654 C   0  0  0  0  0  0  0  0  0  0  0  0
    8.1902   -3.6220   61.4649 C   0  0  0  0  0  0  0  0  0  0  0  0
    9.0173   -2.5025   59.5542 C   0  0  0  0  0  0  0  0  0  0  0  0
    7.6916   -1.5952   64.2303 C   0  0  0  0  0  0  0  0  0  0  0  0
    7.9451   -0.2369   63.9617 C   0  0  0  0  0  0  0  0  0  0  0  0
    8.7602   -2.6237   62.2634 C   0  0  0  0  0  0  0  0  0  0  0  0
    9.4391   -1.5605   61.6483 C   0  0  0  0  0  0  0  0  0  0  0  0
    8.6297   -2.6720   63.7616 C   0  0  0  0  0  0  0  0  0  0  0  0
   11.2522    0.0184   61.8901 C   0  0  0  0  0  0  0  0  0  0  0  0
   12.1300    0.5812   62.9967 C   0  0  0  0  0  0  0  0  0  0  0  0
   10.1137    0.8708   64.4337 C   0  0  0  0  0  0  0  0  0  0  0  0
    9.2188    0.3081   63.3134 C   0  0  0  0  0  0  0  0  0  0  0  0
   12.1720    2.2070   64.8818 C   0  0  0  0  0  0  0  0  0  0  0  0
    9.5781   -1.5197   60.2942 N   0  0  0  0  0  0  0  0  0  0  0  0
   10.0364   -0.5799   62.4546 N   0  0  0  0  0  0  0  0  0  0  0  0
   11.3268    1.5372   63.8340 N   0  0  0  0  0  0  0  0  0  0  0  0
   10.9894    2.2838   63.2108 H   0  0  0  0  0  0  0  0  0  0  0  0
  1  2  1  0  0  0
  1  4  2  0  0  0
  2  5  2  0  0  0
  3  6  2  0  0  0
  3  7  1  0  0  0
  4  8  1  0  0  0
  5  9  1  0  0  0
  6 10  1  0  0  0
  7 18  2  0  0  0
  8  9  2  0  0  0
  8 12  1  0  0  0
  9 16  1  0  0  0
 10 11  2  0  0  0
 10 12  1  0  0  0
 11 18  1  0  0  0
 11 19  1  0  0  0
 13 14  1  0  0  0
 13 19  1  0  0  0
 14 20  1  0  0  0
 15 16  1  0  0  0
 15 20  1  0  0  0
 16 19  1  0  0  0
 17 20  1  0  0  0
 20 21  1  0  0  0
M  CHG 1  20   1
M  END
> <minimizedAffinity>
-5.64083

> <CNNscore>
0.4530439973

> <CNNaffinity>
5.7306451797

> <CNN_VS>
2.5962343216

> <CNNaffinity_variance>
0.1352216899

$$$$



 21 24  0  0  0  0  0  0  0  0999 V2000
   12.0347   -0.8491   55.6960 C   0  0  0  0  0  0  0  0  0  0  0  0
   13.0310   -0.3444   56.5204 C   0  0  0  0  0  0  0  0  0  0  0  0
    8.5040   -3.8537   60.1228 C   0  0  0  0  0  0  0  0  0  0  0  0
   10.7315   -0.9572   56.1751 C   0  0  0  0  0  0  0  0  0  0  0  0
   12.7182    0.0587   57.8185 C   0  0  0  0  0  0  0  0  0  0  0  0
    8.4975   -3.0012   59.0302 C   0  0  0  0  0  0  0  0  0  0  0  0
    9.0146   -3.3664   61.3078 C   0  0  0  0  0  0  0  0  0  0  0  0
   10.4055   -0.5572   57.4842 C   0  0  0  0  0  0  0  0  0  0  0  0
   11.4041   -0.0331   58.3265 C   0  0  0  0  0  0  0  0  0  0  0  0
    8.9993   -1.7003   59.1527 C   0  0  0  0  0  0  0  0  0  0  0  0
    9.5243   -1.2831   60.3855 C   0  0  0  0  0  0  0  0  0  0  0  0
    8.9999   -0.7642   57.9747 C   0  0  0  0  0  0  0  0  0  0  0  0
    9.8364    0.6130   61.8505 C   0  0  0  0  0  0  0  0  0  0  0  0
    9.7988    2.1309   61.7694 C   0  0  0  0  0  0  0  0  0  0  0  0
   11.1223    2.0400   59.6590 C   0  0  0  0  0  0  0  0  0  0  0  0
   11.1697    0.5026   59.7399 C   0  0  0  0  0  0  0  0  0  0  0  0
   11.0924    4.1248   61.0284 C   0  0  0  0  0  0  0  0  0  0  0  0
    9.5097   -2.1178   61.4615 N   0  0  0  0  0  0  0  0  0  0  0  0
    9.9960    0.0322   60.5118 N   0  0  0  0  0  0  0  0  0  0  0  0
   11.0216    2.6230   61.0465 N   0  0  0  0  0  0  0  0  0  0  0  0
   11.8432    2.2989   61.5753 H   0  0  0  0  0  0  0  0  0  0  0  0
  1  2  1  0  0  0
  1  4  2  0  0  0
  2  5  2  0  0  0
  3  6  2  0  0  0
  3  7  1  0  0  0
  4  8  1  0  0  0
  5  9  1  0  0  0
  6 10  1  0  0  0
  7 18  2  0  0  0
  8  9  2  0  0  0
  8 12  1  0  0  0
  9 16  1  0  0  0
 10 11  2  0  0  0
 10 12  1  0  0  0
 11 18  1  0  0  0
 11 19  1  0  0  0
 13 14  1  0  0  0
 13 19  1  0  0  0
 14 20  1  0  0  0
 15 16  1  0  0  0
 15 20  1  0  0  0
 16 19  1  0  0  0
 17 20  1  0  0  0
 20 21  1  0  0  0
M  CHG 1  20   1
M  END
> <minimizedAffinity>
-8.16837

> <CNNscore>
0.4103045464

> <CNNaffinity>
5.5492067337

> <CNN_VS>
2.2768647671

> <CNNaffinity_variance>
0.0351510830

$$$$



 21 24  0  0  0  0  0  0  0  0999 V2000
   13.0366    0.2974   59.1588 C   0  0  0  0  0  0  0  0  0  0  0  0
   14.1048    0.9942   59.7067 C   0  0  0  0  0  0  0  0  0  0  0  0
   14.3222    1.2236   52.9475 C   0  0  0  0  0  0  0  0  0  0  0  0
   13.2022   -0.3860   57.9566 C   0  0  0  0  0  0  0  0  0  0  0  0
   15.3377    0.9978   59.0544 C   0  0  0  0  0  0  0  0  0  0  0  0
   13.9723    0.3064   53.9257 C   0  0  0  0  0  0  0  0  0  0  0  0
   15.6097    1.7178   52.9691 C   0  0  0  0  0  0  0  0  0  0  0  0
   14.4404   -0.3860   57.2881 C   0  0  0  0  0  0  0  0  0  0  0  0
   15.5346    0.3072   57.8388 C   0  0  0  0  0  0  0  0  0  0  0  0
   14.9100   -0.0838   54.8889 C   0  0  0  0  0  0  0  0  0  0  0  0
   16.1947    0.4804   54.8605 C   0  0  0  0  0  0  0  0  0  0  0  0
   14.5438   -1.0776   55.9576 C   0  0  0  0  0  0  0  0  0  0  0  0
   18.5300    0.0802   55.3348 C   0  0  0  0  0  0  0  0  0  0  0  0
   19.3766   -0.8970   56.1349 C   0  0  0  0  0  0  0  0  0  0  0  0
   17.8048   -0.6685   58.0562 C   0  0  0  0  0  0  0  0  0  0  0  0
   16.9474    0.3274   57.2527 C   0  0  0  0  0  0  0  0  0  0  0  0
   20.1397   -1.4598   58.4370 C   0  0  0  0  0  0  0  0  0  0  0  0
   16.5398    1.3658   53.8851 N   0  0  0  0  0  0  0  0  0  0  0  0
   17.1406    0.0616   55.8083 N   0  0  0  0  0  0  0  0  0  0  0  0
   19.2407   -0.5918   57.6007 N   0  0  0  0  0  0  0  0  0  0  0  0
   19.5561    0.3776   57.7439 H   0  0  0  0  0  0  0  0  0  0  0  0
  1  2  1  0  0  0
  1  4  2  0  0  0
  2  5  2  0  0  0
  3  6  2  0  0  0
  3  7  1  0  0  0
  4  8  1  0  0  0
  5  9  1  0  0  0
  6 10  1  0  0  0
  7 18  2  0  0  0
  8  9  2  0  0  0
  8 12  1  0  0  0
  9 16  1  0  0  0
 10 11  2  0  0  0
 10 12  1  0  0  0
 11 18  1  0  0  0
 11 19  1  0  0  0
 13 14  1  0  0  0
 13 19  1  0  0  0
 14 20  1  0  0  0
 15 16  1  0  0  0
 15 20  1  0  0  0
 16 19  1  0  0  0
 17 20  1  0  0  0
 20 21  1  0  0  0
M  CHG 1  20   1
M  END
> <minimizedAffinity>
-7.54259

> <CNNscore>
0.3858022690

> <CNNaffinity>
6.0230994225

> <CNN_VS>
2.3237254620

> <CNNaffinity_variance>
0.3988581300

$$$$



 21 24  0  0  0  0  0  0  0  0999 V2000
   17.8038   -0.5222   58.5105 C   0  0  0  0  0  0  0  0  0  0  0  0
   16.9488   -0.7752   59.5744 C   0  0  0  0  0  0  0  0  0  0  0  0
   13.8845   -2.0900   53.6864 C   0  0  0  0  0  0  0  0  0  0  0  0
   17.2882   -0.0374   57.3110 C   0  0  0  0  0  0  0  0  0  0  0  0
   15.5819   -0.5340   59.4375 C   0  0  0  0  0  0  0  0  0  0  0  0
   14.7838   -1.1595   54.1822 C   0  0  0  0  0  0  0  0  0  0  0  0
   12.6546   -2.1792   54.3045 C   0  0  0  0  0  0  0  0  0  0  0  0
   15.9105    0.2059   57.1606 C   0  0  0  0  0  0  0  0  0  0  0  0
   15.0342   -0.0357   58.2353 C   0  0  0  0  0  0  0  0  0  0  0  0
   14.4314   -0.3552   55.2723 C   0  0  0  0  0  0  0  0  0  0  0  0
   13.1695   -0.5197   55.8638 C   0  0  0  0  0  0  0  0  0  0  0  0
   15.3981    0.6585   55.8220 C   0  0  0  0  0  0  0  0  0  0  0  0
   11.3750    0.6143   57.0183 C   0  0  0  0  0  0  0  0  0  0  0  0
   11.1504    1.9169   57.7697 C   0  0  0  0  0  0  0  0  0  0  0  0
   13.3030    1.5772   58.9799 C   0  0  0  0  0  0  0  0  0  0  0  0
   13.5322    0.2532   58.2268 C   0  0  0  0  0  0  0  0  0  0  0  0
   11.5466    3.0632   59.9439 C   0  0  0  0  0  0  0  0  0  0  0  0
   12.2817   -1.4213   55.3601 N   0  0  0  0  0  0  0  0  0  0  0  0
   12.8089    0.3112   56.9353 N   0  0  0  0  0  0  0  0  0  0  0  0
   11.8240    1.8421   59.1116 N   0  0  0  0  0  0  0  0  0  0  0  0
   11.4140    1.0451   59.6179 H   0  0  0  0  0  0  0  0  0  0  0  0
  1  2  1  0  0  0
  1  4  2  0  0  0
  2  5  2  0  0  0
  3  6  2  0  0  0
  3  7  1  0  0  0
  4  8  1  0  0  0
  5  9  1  0  0  0
  6 10  1  0  0  0
  7 18  2  0  0  0
  8  9  2  0  0  0
  8 12  1  0  0  0
  9 16  1  0  0  0
 10 11  2  0  0  0
 10 12  1  0  0  0
 11 18  1  0  0  0
 11 19  1  0  0  0
 13 14  1  0  0  0
 13 19  1  0  0  0
 14 20  1  0  0  0
 15 16  1  0  0  0
 15 20  1  0  0  0
 16 19  1  0  0  0
 17 20  1  0  0  0
 20 21  1  0  0  0
M  CHG 1  20   1
M  END
> <minimizedAffinity>
-8.58471

> <CNNscore>
0.3577806652

> <CNNaffinity>
5.5082216263

> <CNN_VS>
1.9707351923

> <CNNaffinity_variance>
0.1356855333

$$$$



 36 40  0  0  0  0  0  0  0  0999 V2000
   14.4021   -0.5596   60.6944 C   0  0  0  0  0  0  0  0  0  0  0  0
   11.7369   -0.1878   59.0330 C   0  0  0  0  0  0  0  0  0  0  0  0
   11.3394   -0.7326   61.4653 C   0  0  0  0  0  0  0  0  0  0  0  0
   12.7453    0.8758   59.4440 C   0  0  0  0  0  0  0  0  0  0  0  0
   12.3507    0.3341   61.8614 C   0  0  0  0  0  0  0  0  0  0  0  0
   10.6839   -0.4225   60.1179 C   0  0  0  0  0  0  0  0  0  0  0  0
   13.3750    0.5375   60.7726 N   0  0  0  0  0  0  0  0  0  0  0  0
   13.9192    1.4040   61.0558 H   0  0  0  0  0  0  0  0  0  0  0  0
    6.9930   -3.7608   61.7569 C   0  0  0  0  0  0  0  0  0  0  0  0
    7.6893   -2.8027   62.5235 C   0  0  0  0  0  0  0  0  0  0  0  0
    7.2474   -3.9131   60.3913 C   0  0  0  0  0  0  0  0  0  0  0  0
    8.6555   -1.9753   61.9414 C   0  0  0  0  0  0  0  0  0  0  0  0
    8.2025   -3.0875   59.8409 C   0  0  0  0  0  0  0  0  0  0  0  0
    8.8936   -2.1392   60.5927 C   0  0  0  0  0  0  0  0  0  0  0  0
    9.6510   -2.0140   58.4244 C   0  0  0  0  0  0  0  0  0  0  0  0
    8.6515   -3.0236   58.5215 N   0  0  0  0  0  0  0  0  0  0  0  0
    9.7798   -1.4801   59.7333 N   0  0  0  0  0  0  0  0  0  0  0  0
   10.2599   -1.6895   57.4144 O   0  0  0  0  0  0  0  0  0  0  0  0
    8.3132   -3.6063   57.7658 H   0  0  0  0  0  0  0  0  0  0  0  0
   15.7023    0.0129   60.1478 C   0  0  0  0  0  0  0  0  0  0  0  0
   16.3140   -0.9235   59.0970 C   0  0  0  0  0  0  0  0  0  0  0  0
   16.9713   -0.1557   57.9212 C   0  0  0  0  0  0  0  0  0  0  0  0
   19.0602   -0.1787   56.4931 C   0  0  0  0  0  0  0  0  0  0  0  0
   19.0899   -1.3603   58.6002 C   0  0  0  0  0  0  0  0  0  0  0  0
   20.3799   -0.5644   56.2582 C   0  0  0  0  0  0  0  0  0  0  0  0
   20.4096   -1.7460   58.3654 C   0  0  0  0  0  0  0  0  0  0  0  0
   18.4152   -0.5767   57.6641 C   0  0  0  0  0  0  0  0  0  0  0  0
   21.0546   -1.3481   57.1944 C   0  0  0  0  0  0  0  0  0  0  0  0
   22.3211   -1.7208   56.9677 F   0  0  0  0  0  0  0  0  0  0  0  0
   16.4781    0.6677   55.5819 C   0  0  0  0  0  0  0  0  0  0  0  0
   15.0755   -1.0631   56.5168 C   0  0  0  0  0  0  0  0  0  0  0  0
   15.7274    0.6413   54.4066 C   0  0  0  0  0  0  0  0  0  0  0  0
   14.3246   -1.0894   55.3415 C   0  0  0  0  0  0  0  0  0  0  0  0
   16.1522   -0.1846   56.6370 C   0  0  0  0  0  0  0  0  0  0  0  0
   14.6506   -0.2372   54.2864 C   0  0  0  0  0  0  0  0  0  0  0  0
   13.9279   -0.2607   53.1588 F   0  0  0  0  0  0  0  0  0  0  0  0
  9 10  1  0  0  0
  9 11  2  0  0  0
 10 12  2  0  0  0
 23 25  2  0  0  0
 23 27  1  0  0  0
 24 26  1  0  0  0
 24 27  2  0  0  0
 30 32  2  0  0  0
 30 34  1  0  0  0
 31 33  1  0  0  0
 31 34  2  0  0  0
 11 13  1  0  0  0
 12 14  1  0  0  0
 25 28  1  0  0  0
 26 28  2  0  0  0
 32 35  1  0  0  0
 33 35  2  0  0  0
 27 22  1  0  0  0
 34 22  1  0  0  0
 13 14  2  0  0  0
 13 16  1  0  0  0
 14 17  1  0  0  0
 28 29  1  0  0  0
 35 36  1  0  0  0
 15 16  1  0  0  0
 15 17  1  0  0  0
 15 18  2  0  0  0
  2  4  1  0  0  0
  2  6  1  0  0  0
  3  5  1  0  0  0
  3  6  1  0  0  0
  4  7  1  0  0  0
  5  7  1  0  0  0
  6 17  1  0  0  0
 20 21  1  0  0  0
 20  1  1  0  0  0
 21 22  1  0  0  0
  1  7  1  0  0  0
 16 19  1  0  0  0
  7  8  1  0  0  0
M  CHG 1   7   1
M  END
> <minimizedAffinity>
-12.23059

> <CNNscore>
0.8943277001

> <CNNaffinity>
8.0939741135

> <CNN_VS>
7.2386651039

> <CNNaffinity_variance>
0.0513046905

$$$$



 36 40  0  0  0  0  0  0  0  0999 V2000
   13.5498    0.4031   59.1881 C   0  0  0  0  0  0  0  0  0  0  0  0
   10.4471    0.4516   59.7986 C   0  0  0  0  0  0  0  0  0  0  0  0
   11.7562   -1.0435   61.3547 C   0  0  0  0  0  0  0  0  0  0  0  0
   11.4665    1.5603   60.0187 C   0  0  0  0  0  0  0  0  0  0  0  0
   12.7680    0.0742   61.5650 C   0  0  0  0  0  0  0  0  0  0  0  0
   10.3723   -0.4981   60.9959 C   0  0  0  0  0  0  0  0  0  0  0  0
   12.8188    0.9886   60.3660 N   0  0  0  0  0  0  0  0  0  0  0  0
   13.4067    1.8189   60.6695 H   0  0  0  0  0  0  0  0  0  0  0  0
    6.7706   -3.6931   63.0630 C   0  0  0  0  0  0  0  0  0  0  0  0
    7.5068   -2.6852   63.7208 C   0  0  0  0  0  0  0  0  0  0  0  0
    6.9527   -3.9447   61.7006 C   0  0  0  0  0  0  0  0  0  0  0  0
    8.4416   -1.9062   63.0306 C   0  0  0  0  0  0  0  0  0  0  0  0
    7.8782   -3.1652   61.0427 C   0  0  0  0  0  0  0  0  0  0  0  0
    8.6084   -2.1682   61.6867 C   0  0  0  0  0  0  0  0  0  0  0  0
    9.2510   -2.2032   59.4783 C   0  0  0  0  0  0  0  0  0  0  0  0
    8.2572   -3.1987   59.7005 N   0  0  0  0  0  0  0  0  0  0  0  0
    9.4487   -1.5767   60.7367 N   0  0  0  0  0  0  0  0  0  0  0  0
    9.8061   -1.9551   58.4170 O   0  0  0  0  0  0  0  0  0  0  0  0
    7.8794   -3.8329   59.0076 H   0  0  0  0  0  0  0  0  0  0  0  0
   14.8164    1.2090   58.9367 C   0  0  0  0  0  0  0  0  0  0  0  0
   16.0357    0.2862   58.8060 C   0  0  0  0  0  0  0  0  0  0  0  0
   16.7717    0.4551   57.4518 C   0  0  0  0  0  0  0  0  0  0  0  0
   18.9766   -0.0577   56.3208 C   0  0  0  0  0  0  0  0  0  0  0  0
   18.5628   -0.9810   58.5146 C   0  0  0  0  0  0  0  0  0  0  0  0
   20.2298   -0.6696   56.2995 C   0  0  0  0  0  0  0  0  0  0  0  0
   19.8161   -1.5930   58.4934 C   0  0  0  0  0  0  0  0  0  0  0  0
   18.1431   -0.2134   57.4283 C   0  0  0  0  0  0  0  0  0  0  0  0
   20.6496   -1.4373   57.3859 C   0  0  0  0  0  0  0  0  0  0  0  0
   21.8520   -2.0272   57.3645 F   0  0  0  0  0  0  0  0  0  0  0  0
   15.9442    0.8260   55.0914 C   0  0  0  0  0  0  0  0  0  0  0  0
   15.1655   -1.1180   56.2963 C   0  0  0  0  0  0  0  0  0  0  0  0
   15.1794    0.4483   53.9878 C   0  0  0  0  0  0  0  0  0  0  0  0
   14.4006   -1.4956   55.1926 C   0  0  0  0  0  0  0  0  0  0  0  0
   15.9372    0.0427   56.2457 C   0  0  0  0  0  0  0  0  0  0  0  0
   14.4076   -0.7125   54.0383 C   0  0  0  0  0  0  0  0  0  0  0  0
   13.6710   -1.0738   52.9795 F   0  0  0  0  0  0  0  0  0  0  0  0
  9 10  1  0  0  0
  9 11  2  0  0  0
 10 12  2  0  0  0
 23 25  2  0  0  0
 23 27  1  0  0  0
 24 26  1  0  0  0
 24 27  2  0  0  0
 30 32  2  0  0  0
 30 34  1  0  0  0
 31 33  1  0  0  0
 31 34  2  0  0  0
 11 13  1  0  0  0
 12 14  1  0  0  0
 25 28  1  0  0  0
 26 28  2  0  0  0
 32 35  1  0  0  0
 33 35  2  0  0  0
 27 22  1  0  0  0
 34 22  1  0  0  0
 13 14  2  0  0  0
 13 16  1  0  0  0
 14 17  1  0  0  0
 28 29  1  0  0  0
 35 36  1  0  0  0
 15 16  1  0  0  0
 15 17  1  0  0  0
 15 18  2  0  0  0
  2  4  1  0  0  0
  2  6  1  0  0  0
  3  5  1  0  0  0
  3  6  1  0  0  0
  4  7  1  0  0  0
  5  7  1  0  0  0
  6 17  1  0  0  0
 20 21  1  0  0  0
 20  1  1  0  0  0
 21 22  1  0  0  0
  1  7  1  0  0  0
 16 19  1  0  0  0
  7  8  1  0  0  0
M  CHG 1   7   1
M  END
> <minimizedAffinity>
-11.48738

> <CNNscore>
0.7764198184

> <CNNaffinity>
7.7338209152

> <CNN_VS>
6.0046916008

> <CNNaffinity_variance>
0.0138823781

$$$$



 36 40  0  0  0  0  0  0  0  0999 V2000
   14.1496    0.2156   59.5174 C   0  0  0  0  0  0  0  0  0  0  0  0
   11.6640   -0.3210   57.6370 C   0  0  0  0  0  0  0  0  0  0  0  0
   11.0242    0.3475   59.9853 C   0  0  0  0  0  0  0  0  0  0  0  0
   12.6507    0.8369   57.5844 C   0  0  0  0  0  0  0  0  0  0  0  0
   12.0152    1.5010   59.9186 C   0  0  0  0  0  0  0  0  0  0  0  0
   10.5073   -0.0393   58.5980 C   0  0  0  0  0  0  0  0  0  0  0  0
   13.1431    1.1892   58.9663 N   0  0  0  0  0  0  0  0  0  0  0  0
   13.6758    2.1005   58.8523 H   0  0  0  0  0  0  0  0  0  0  0  0
    7.9457   -3.2970   61.8041 C   0  0  0  0  0  0  0  0  0  0  0  0
    8.7818   -2.2180   62.1610 C   0  0  0  0  0  0  0  0  0  0  0  0
    7.7114   -3.6132   60.4632 C   0  0  0  0  0  0  0  0  0  0  0  0
    9.4021   -1.4311   61.1849 C   0  0  0  0  0  0  0  0  0  0  0  0
    8.3329   -2.8244   59.5207 C   0  0  0  0  0  0  0  0  0  0  0  0
    9.1597   -1.7574   59.8669 C   0  0  0  0  0  0  0  0  0  0  0  0
    9.0847   -1.8803   57.5711 C   0  0  0  0  0  0  0  0  0  0  0  0
    8.2772   -2.9119   58.1294 N   0  0  0  0  0  0  0  0  0  0  0  0
    9.6221   -1.1765   58.6806 N   0  0  0  0  0  0  0  0  0  0  0  0
    9.2647   -1.6626   56.3811 O   0  0  0  0  0  0  0  0  0  0  0  0
    7.7454   -3.6017   57.6134 H   0  0  0  0  0  0  0  0  0  0  0  0
   15.4554    0.9490   59.7894 C   0  0  0  0  0  0  0  0  0  0  0  0
   16.2579    1.1368   58.4948 C   0  0  0  0  0  0  0  0  0  0  0  0
   16.5350   -0.2017   57.7628 C   0  0  0  0  0  0  0  0  0  0  0  0
   14.9889   -1.4399   56.1880 C   0  0  0  0  0  0  0  0  0  0  0  0
   15.9079    0.6776   55.4750 C   0  0  0  0  0  0  0  0  0  0  0  0
   14.3078   -1.5524   54.9760 C   0  0  0  0  0  0  0  0  0  0  0  0
   15.2267    0.5652   54.2630 C   0  0  0  0  0  0  0  0  0  0  0  0
   15.7890   -0.3249   56.4375 C   0  0  0  0  0  0  0  0  0  0  0  0
   14.4267   -0.5498   54.0135 C   0  0  0  0  0  0  0  0  0  0  0  0
   13.7747   -0.6589   52.8485 F   0  0  0  0  0  0  0  0  0  0  0  0
   18.6964   -1.2362   58.5700 C   0  0  0  0  0  0  0  0  0  0  0  0
   18.6945   -0.0668   56.4559 C   0  0  0  0  0  0  0  0  0  0  0  0
   20.0534   -1.5181   58.4129 C   0  0  0  0  0  0  0  0  0  0  0  0
   20.0516   -0.3486   56.2988 C   0  0  0  0  0  0  0  0  0  0  0  0
   18.0170   -0.5106   57.5914 C   0  0  0  0  0  0  0  0  0  0  0  0
   20.7310   -1.0742   57.2773 C   0  0  0  0  0  0  0  0  0  0  0  0
   22.0348   -1.3425   57.1277 F   0  0  0  0  0  0  0  0  0  0  0  0
  9 10  1  0  0  0
  9 11  2  0  0  0
 10 12  2  0  0  0
 23 25  2  0  0  0
 23 27  1  0  0  0
 24 26  1  0  0  0
 24 27  2  0  0  0
 30 32  2  0  0  0
 30 34  1  0  0  0
 31 33  1  0  0  0
 31 34  2  0  0  0
 11 13  1  0  0  0
 12 14  1  0  0  0
 25 28  1  0  0  0
 26 28  2  0  0  0
 32 35  1  0  0  0
 33 35  2  0  0  0
 27 22  1  0  0  0
 34 22  1  0  0  0
 13 14  2  0  0  0
 13 16  1  0  0  0
 14 17  1  0  0  0
 28 29  1  0  0  0
 35 36  1  0  0  0
 15 16  1  0  0  0
 15 17  1  0  0  0
 15 18  2  0  0  0
  2  4  1  0  0  0
  2  6  1  0  0  0
  3  5  1  0  0  0
  3  6  1  0  0  0
  4  7  1  0  0  0
  5  7  1  0  0  0
  6 17  1  0  0  0
 20 21  1  0  0  0
 20  1  1  0  0  0
 21 22  1  0  0  0
  1  7  1  0  0  0
 16 19  1  0  0  0
  7  8  1  0  0  0
M  CHG 1   7   1
M  END
> <minimizedAffinity>
-11.68256

> <CNNscore>
0.7582744956

> <CNNaffinity>
7.9526510239

> <CNN_VS>
6.0302925110

> <CNNaffinity_variance>
0.0350740030

$$$$



 36 40  0  0  0  0  0  0  0  0999 V2000
   13.8678    1.0021   59.3136 C   0  0  0  0  0  0  0  0  0  0  0  0
   11.5993   -0.2296   57.4864 C   0  0  0  0  0  0  0  0  0  0  0  0
   10.7249    0.8108   59.6133 C   0  0  0  0  0  0  0  0  0  0  0  0
   12.4398    1.0138   57.2328 C   0  0  0  0  0  0  0  0  0  0  0  0
   11.5712    2.0478   59.3470 C   0  0  0  0  0  0  0  0  0  0  0  0
   10.3542    0.0855   58.3181 C   0  0  0  0  0  0  0  0  0  0  0  0
   12.7907    1.7014   58.5290 N   0  0  0  0  0  0  0  0  0  0  0  0
   13.2158    2.6329   58.2483 H   0  0  0  0  0  0  0  0  0  0  0  0
    8.5400   -3.0922   62.0683 C   0  0  0  0  0  0  0  0  0  0  0  0
    9.2932   -1.9103   62.2309 C   0  0  0  0  0  0  0  0  0  0  0  0
    8.1865   -3.5513   60.7966 C   0  0  0  0  0  0  0  0  0  0  0  0
    9.7096   -1.1611   61.1253 C   0  0  0  0  0  0  0  0  0  0  0  0
    8.6078   -2.7971   59.7240 C   0  0  0  0  0  0  0  0  0  0  0  0
    9.3518   -1.6289   59.8781 C   0  0  0  0  0  0  0  0  0  0  0  0
    9.0245   -1.9692   57.6268 C   0  0  0  0  0  0  0  0  0  0  0  0
    8.4007   -3.0172   58.3620 N   0  0  0  0  0  0  0  0  0  0  0  0
    9.6096   -1.1183   58.6008 N   0  0  0  0  0  0  0  0  0  0  0  0
    9.0413   -1.8458   56.4101 O   0  0  0  0  0  0  0  0  0  0  0  0
    7.8884   -3.7990   57.9730 H   0  0  0  0  0  0  0  0  0  0  0  0
   15.2180    1.6063   58.9546 C   0  0  0  0  0  0  0  0  0  0  0  0
   16.2836    0.5127   58.8001 C   0  0  0  0  0  0  0  0  0  0  0  0
   16.9505    0.5204   57.4003 C   0  0  0  0  0  0  0  0  0  0  0  0
   19.1592   -0.0174   56.2886 C   0  0  0  0  0  0  0  0  0  0  0  0
   18.6874   -0.9911   58.4487 C   0  0  0  0  0  0  0  0  0  0  0  0
   20.3966   -0.6609   56.2687 C   0  0  0  0  0  0  0  0  0  0  0  0
   19.9249   -1.6346   58.4289 C   0  0  0  0  0  0  0  0  0  0  0  0
   18.3047   -0.1826   57.3785 C   0  0  0  0  0  0  0  0  0  0  0  0
   20.7795   -1.4694   57.3390 C   0  0  0  0  0  0  0  0  0  0  0  0
   21.9666   -2.0895   57.3189 F   0  0  0  0  0  0  0  0  0  0  0  0
   16.0006    0.6704   55.0618 C   0  0  0  0  0  0  0  0  0  0  0  0
   15.2604   -1.1275   56.4961 C   0  0  0  0  0  0  0  0  0  0  0  0
   15.1710    0.1999   54.0440 C   0  0  0  0  0  0  0  0  0  0  0  0
   14.4307   -1.5979   55.4782 C   0  0  0  0  0  0  0  0  0  0  0  0
   16.0453    0.0066   56.2879 C   0  0  0  0  0  0  0  0  0  0  0  0
   14.3860   -0.9342   54.2521 C   0  0  0  0  0  0  0  0  0  0  0  0
   13.5873   -1.3845   53.2756 F   0  0  0  0  0  0  0  0  0  0  0  0
  9 10  1  0  0  0
  9 11  2  0  0  0
 10 12  2  0  0  0
 23 25  2  0  0  0
 23 27  1  0  0  0
 24 26  1  0  0  0
 24 27  2  0  0  0
 30 32  2  0  0  0
 30 34  1  0  0  0
 31 33  1  0  0  0
 31 34  2  0  0  0
 11 13  1  0  0  0
 12 14  1  0  0  0
 25 28  1  0  0  0
 26 28  2  0  0  0
 32 35  1  0  0  0
 33 35  2  0  0  0
 27 22  1  0  0  0
 34 22  1  0  0  0
 13 14  2  0  0  0
 13 16  1  0  0  0
 14 17  1  0  0  0
 28 29  1  0  0  0
 35 36  1  0  0  0
 15 16  1  0  0  0
 15 17  1  0  0  0
 15 18  2  0  0  0
  2  4  1  0  0  0
  2  6  1  0  0  0
  3  5  1  0  0  0
  3  6  1  0  0  0
  4  7  1  0  0  0
  5  7  1  0  0  0
  6 17  1  0  0  0
 20 21  1  0  0  0
 20  1  1  0  0  0
 21 22  1  0  0  0
  1  7  1  0  0  0
 16 19  1  0  0  0
  7  8  1  0  0  0
M  CHG 1   7   1
M  END
> <minimizedAffinity>
-12.01758

> <CNNscore>
0.5821604729

> <CNNaffinity>
7.5881628990

> <CNN_VS>
4.4175286293

> <CNNaffinity_variance>
0.1550721377

$$$$



 36 40  0  0  0  0  0  0  0  0999 V2000
   12.1176    1.6933   59.4484 C   0  0  0  0  0  0  0  0  0  0  0  0
    9.6004    0.7424   61.1102 C   0  0  0  0  0  0  0  0  0  0  0  0
   11.3219   -1.0707   60.7642 C   0  0  0  0  0  0  0  0  0  0  0  0
   10.7045    1.6982   61.5394 C   0  0  0  0  0  0  0  0  0  0  0  0
   12.4157   -0.1036   61.1951 C   0  0  0  0  0  0  0  0  0  0  0  0
    9.9707   -0.7159   61.3882 C   0  0  0  0  0  0  0  0  0  0  0  0
   12.0203    1.3229   60.9037 N   0  0  0  0  0  0  0  0  0  0  0  0
   12.7495    1.9224   61.3894 H   0  0  0  0  0  0  0  0  0  0  0  0
    6.4447   -4.3514   62.7313 C   0  0  0  0  0  0  0  0  0  0  0  0
    7.3411   -3.6666   63.5787 C   0  0  0  0  0  0  0  0  0  0  0  0
    6.4185   -4.0997   61.3569 C   0  0  0  0  0  0  0  0  0  0  0  0
    8.2312   -2.7145   63.0705 C   0  0  0  0  0  0  0  0  0  0  0  0
    7.3039   -3.1585   60.8803 C   0  0  0  0  0  0  0  0  0  0  0  0
    8.1916   -2.4788   61.7121 C   0  0  0  0  0  0  0  0  0  0  0  0
    8.5215   -1.7317   59.5617 C   0  0  0  0  0  0  0  0  0  0  0  0
    7.4921   -2.7156   59.5708 N   0  0  0  0  0  0  0  0  0  0  0  0
    8.9381   -1.6056   60.9129 N   0  0  0  0  0  0  0  0  0  0  0  0
    8.9442   -1.1316   58.5833 O   0  0  0  0  0  0  0  0  0  0  0  0
    6.9743   -3.0481   58.7669 H   0  0  0  0  0  0  0  0  0  0  0  0
   12.6838    0.5138   58.6706 C   0  0  0  0  0  0  0  0  0  0  0  0
   14.1961    0.6709   58.4616 C   0  0  0  0  0  0  0  0  0  0  0  0
   14.8064   -0.4782   57.6184 C   0  0  0  0  0  0  0  0  0  0  0  0
   14.0812   -1.6213   55.4804 C   0  0  0  0  0  0  0  0  0  0  0  0
   14.2925    0.7853   55.4877 C   0  0  0  0  0  0  0  0  0  0  0  0
   13.6930   -1.5832   54.1412 C   0  0  0  0  0  0  0  0  0  0  0  0
   13.9044    0.8235   54.1485 C   0  0  0  0  0  0  0  0  0  0  0  0
   14.3809   -0.4371   56.1536 C   0  0  0  0  0  0  0  0  0  0  0  0
   13.6046   -0.3607   53.4752 C   0  0  0  0  0  0  0  0  0  0  0  0
   13.2344   -0.3242   52.1884 F   0  0  0  0  0  0  0  0  0  0  0  0
   17.1483   -0.0996   56.7433 C   0  0  0  0  0  0  0  0  0  0  0  0
   16.8763   -1.2037   58.8750 C   0  0  0  0  0  0  0  0  0  0  0  0
   18.5336   -0.2091   56.8633 C   0  0  0  0  0  0  0  0  0  0  0  0
   18.2617   -1.3133   58.9950 C   0  0  0  0  0  0  0  0  0  0  0  0
   16.3196   -0.5968   57.7492 C   0  0  0  0  0  0  0  0  0  0  0  0
   19.0904   -0.8159   57.9891 C   0  0  0  0  0  0  0  0  0  0  0  0
   20.4206   -0.9236   58.1032 F   0  0  0  0  0  0  0  0  0  0  0  0
  9 10  1  0  0  0
  9 11  2  0  0  0
 10 12  2  0  0  0
 23 25  2  0  0  0
 23 27  1  0  0  0
 24 26  1  0  0  0
 24 27  2  0  0  0
 30 32  2  0  0  0
 30 34  1  0  0  0
 31 33  1  0  0  0
 31 34  2  0  0  0
 11 13  1  0  0  0
 12 14  1  0  0  0
 25 28  1  0  0  0
 26 28  2  0  0  0
 32 35  1  0  0  0
 33 35  2  0  0  0
 27 22  1  0  0  0
 34 22  1  0  0  0
 13 14  2  0  0  0
 13 16  1  0  0  0
 14 17  1  0  0  0
 28 29  1  0  0  0
 35 36  1  0  0  0
 15 16  1  0  0  0
 15 17  1  0  0  0
 15 18  2  0  0  0
  2  4  1  0  0  0
  2  6  1  0  0  0
  3  5  1  0  0  0
  3  6  1  0  0  0
  4  7  1  0  0  0
  5  7  1  0  0  0
  6 17  1  0  0  0
 20 21  1  0  0  0
 20  1  1  0  0  0
 21 22  1  0  0  0
  1  7  1  0  0  0
 16 19  1  0  0  0
  7  8  1  0  0  0
M  CHG 1   7   1
M  END
> <minimizedAffinity>
-10.32883

> <CNNscore>
0.5373776555

> <CNNaffinity>
7.5815496445

> <CNN_VS>
4.0741553307

> <CNNaffinity_variance>
0.0376369543

$$$$



 36 40  0  0  0  0  0  0  0  0999 V2000
   13.6057   -0.5110   61.6916 C   0  0  0  0  0  0  0  0  0  0  0  0
   10.6039   -1.2765   61.0550 C   0  0  0  0  0  0  0  0  0  0  0  0
   10.8718    0.0731   63.1710 C   0  0  0  0  0  0  0  0  0  0  0  0
   11.4987   -0.2881   60.3205 C   0  0  0  0  0  0  0  0  0  0  0  0
   11.7654    1.0530   62.4237 C   0  0  0  0  0  0  0  0  0  0  0  0
    9.8815   -0.6220   62.2343 C   0  0  0  0  0  0  0  0  0  0  0  0
   12.4643    0.3751   61.2712 N   0  0  0  0  0  0  0  0  0  0  0  0
   12.9151    1.1587   60.7146 H   0  0  0  0  0  0  0  0  0  0  0  0
    6.2559   -4.3846   61.8460 C   0  0  0  0  0  0  0  0  0  0  0  0
    6.8050   -3.6070   60.8046 C   0  0  0  0  0  0  0  0  0  0  0  0
    6.6628   -4.2042   63.1706 C   0  0  0  0  0  0  0  0  0  0  0  0
    7.7735   -2.6317   61.0648 C   0  0  0  0  0  0  0  0  0  0  0  0
    7.6172   -3.2384   63.4018 C   0  0  0  0  0  0  0  0  0  0  0  0
    8.1633   -2.4672   62.3776 C   0  0  0  0  0  0  0  0  0  0  0  0
    9.1364   -1.8104   64.3557 C   0  0  0  0  0  0  0  0  0  0  0  0
    8.1983   -2.8512   64.6096 N   0  0  0  0  0  0  0  0  0  0  0  0
    9.0921   -1.5930   62.9536 N   0  0  0  0  0  0  0  0  0  0  0  0
    9.8268   -1.2363   65.1862 O   0  0  0  0  0  0  0  0  0  0  0  0
    7.9794   -3.2531   65.5127 H   0  0  0  0  0  0  0  0  0  0  0  0
   14.8994    0.0266   61.0964 C   0  0  0  0  0  0  0  0  0  0  0  0
   15.4100   -0.8908   59.9770 C   0  0  0  0  0  0  0  0  0  0  0  0
   15.7712   -0.1141   58.6846 C   0  0  0  0  0  0  0  0  0  0  0  0
   18.0626   -1.1442   58.9879 C   0  0  0  0  0  0  0  0  0  0  0  0
   17.6497    0.1918   57.0178 C   0  0  0  0  0  0  0  0  0  0  0  0
   19.3708   -1.3707   58.5602 C   0  0  0  0  0  0  0  0  0  0  0  0
   18.9579   -0.0347   56.5900 C   0  0  0  0  0  0  0  0  0  0  0  0
   17.2021   -0.3629   58.2167 C   0  0  0  0  0  0  0  0  0  0  0  0
   19.8184   -0.8159   57.3611 C   0  0  0  0  0  0  0  0  0  0  0  0
   21.0754   -1.0312   56.9515 F   0  0  0  0  0  0  0  0  0  0  0  0
   15.0005   -1.3135   56.5963 C   0  0  0  0  0  0  0  0  0  0  0  0
   13.6428    0.4882   57.4611 C   0  0  0  0  0  0  0  0  0  0  0  0
   14.0901   -1.5004   55.5563 C   0  0  0  0  0  0  0  0  0  0  0  0
   12.7324    0.3013   56.4209 C   0  0  0  0  0  0  0  0  0  0  0  0
   14.7768   -0.3192   57.5488 C   0  0  0  0  0  0  0  0  0  0  0  0
   12.9561   -0.6930   55.4685 C   0  0  0  0  0  0  0  0  0  0  0  0
   12.0831   -0.8706   54.4681 F   0  0  0  0  0  0  0  0  0  0  0  0
  9 10  1  0  0  0
  9 11  2  0  0  0
 10 12  2  0  0  0
 23 25  2  0  0  0
 23 27  1  0  0  0
 24 26  1  0  0  0
 24 27  2  0  0  0
 30 32  2  0  0  0
 30 34  1  0  0  0
 31 33  1  0  0  0
 31 34  2  0  0  0
 11 13  1  0  0  0
 12 14  1  0  0  0
 25 28  1  0  0  0
 26 28  2  0  0  0
 32 35  1  0  0  0
 33 35  2  0  0  0
 27 22  1  0  0  0
 34 22  1  0  0  0
 13 14  2  0  0  0
 13 16  1  0  0  0
 14 17  1  0  0  0
 28 29  1  0  0  0
 35 36  1  0  0  0
 15 16  1  0  0  0
 15 17  1  0  0  0
 15 18  2  0  0  0
  2  4  1  0  0  0
  2  6  1  0  0  0
  3  5  1  0  0  0
  3  6  1  0  0  0
  4  7  1  0  0  0
  5  7  1  0  0  0
  6 17  1  0  0  0
 20 21  1  0  0  0
 20  1  1  0  0  0
 21 22  1  0  0  0
  1  7  1  0  0  0
 16 19  1  0  0  0
  7  8  1  0  0  0
M  CHG 1   7   1
M  END
> <minimizedAffinity>
-11.52645

> <CNNscore>
0.5315932631

> <CNNaffinity>
7.5211496353

> <CNN_VS>
3.9981925488

> <CNNaffinity_variance>
0.0630884618

$$$$



 36 40  0  0  0  0  0  0  0  0999 V2000
   13.1597    0.4777   59.2321 C   0  0  0  0  0  0  0  0  0  0  0  0
   10.1533    0.6007   60.2061 C   0  0  0  0  0  0  0  0  0  0  0  0
   11.5445   -1.1018   61.4457 C   0  0  0  0  0  0  0  0  0  0  0  0
   11.2513    1.6350   60.4101 C   0  0  0  0  0  0  0  0  0  0  0  0
   12.6343   -0.0572   61.6418 C   0  0  0  0  0  0  0  0  0  0  0  0
   10.1615   -0.4621   61.3068 C   0  0  0  0  0  0  0  0  0  0  0  0
   12.6002    0.9717   60.5388 N   0  0  0  0  0  0  0  0  0  0  0  0
   13.2640    1.7399   60.8493 H   0  0  0  0  0  0  0  0  0  0  0  0
    7.0774   -2.6810   57.6988 C   0  0  0  0  0  0  0  0  0  0  0  0
    8.0017   -1.6313   57.5138 C   0  0  0  0  0  0  0  0  0  0  0  0
    6.8911   -3.2630   58.9556 C   0  0  0  0  0  0  0  0  0  0  0  0
    8.7606   -1.1402   58.5814 C   0  0  0  0  0  0  0  0  0  0  0  0
    7.6493   -2.7628   59.9909 C   0  0  0  0  0  0  0  0  0  0  0  0
    8.5639   -1.7262   59.8144 C   0  0  0  0  0  0  0  0  0  0  0  0
    8.6129   -2.3455   62.0292 C   0  0  0  0  0  0  0  0  0  0  0  0
    7.6676   -3.1499   61.3311 N   0  0  0  0  0  0  0  0  0  0  0  0
    9.1559   -1.4667   61.0557 N   0  0  0  0  0  0  0  0  0  0  0  0
    8.8858   -2.4134   63.2196 O   0  0  0  0  0  0  0  0  0  0  0  0
    7.0963   -3.8847   61.7295 H   0  0  0  0  0  0  0  0  0  0  0  0
   14.4256    1.2573   58.9054 C   0  0  0  0  0  0  0  0  0  0  0  0
   15.6354    0.3188   58.8022 C   0  0  0  0  0  0  0  0  0  0  0  0
   16.4070    0.4815   57.4671 C   0  0  0  0  0  0  0  0  0  0  0  0
   18.1887   -0.9222   58.5892 C   0  0  0  0  0  0  0  0  0  0  0  0
   18.6830    0.0693   56.4423 C   0  0  0  0  0  0  0  0  0  0  0  0
   19.4618   -1.4912   58.6197 C   0  0  0  0  0  0  0  0  0  0  0  0
   19.9562   -0.4998   56.4726 C   0  0  0  0  0  0  0  0  0  0  0  0
   17.7993   -0.1420   57.5006 C   0  0  0  0  0  0  0  0  0  0  0  0
   20.3456   -1.2800   57.5613 C   0  0  0  0  0  0  0  0  0  0  0  0
   21.5691   -1.8242   57.5916 F   0  0  0  0  0  0  0  0  0  0  0  0
   15.5896    0.8033   55.0961 C   0  0  0  0  0  0  0  0  0  0  0  0
   14.9402   -1.2003   56.2798 C   0  0  0  0  0  0  0  0  0  0  0  0
   14.8719    0.3761   53.9791 C   0  0  0  0  0  0  0  0  0  0  0  0
   14.2223   -1.6274   55.1627 C   0  0  0  0  0  0  0  0  0  0  0  0
   15.6238    0.0150   56.2465 C   0  0  0  0  0  0  0  0  0  0  0  0
   14.1881   -0.8393   54.0123 C   0  0  0  0  0  0  0  0  0  0  0  0
   13.4965   -1.2483   52.9406 F   0  0  0  0  0  0  0  0  0  0  0  0
  9 10  1  0  0  0
  9 11  2  0  0  0
 10 12  2  0  0  0
 23 25  2  0  0  0
 23 27  1  0  0  0
 24 26  1  0  0  0
 24 27  2  0  0  0
 30 32  2  0  0  0
 30 34  1  0  0  0
 31 33  1  0  0  0
 31 34  2  0  0  0
 11 13  1  0  0  0
 12 14  1  0  0  0
 25 28  1  0  0  0
 26 28  2  0  0  0
 32 35  1  0  0  0
 33 35  2  0  0  0
 27 22  1  0  0  0
 34 22  1  0  0  0
 13 14  2  0  0  0
 13 16  1  0  0  0
 14 17  1  0  0  0
 28 29  1  0  0  0
 35 36  1  0  0  0
 15 16  1  0  0  0
 15 17  1  0  0  0
 15 18  2  0  0  0
  2  4  1  0  0  0
  2  6  1  0  0  0
  3  5  1  0  0  0
  3  6  1  0  0  0
  4  7  1  0  0  0
  5  7  1  0  0  0
  6 17  1  0  0  0
 20 21  1  0  0  0
 20  1  1  0  0  0
 21 22  1  0  0  0
  1  7  1  0  0  0
 16 19  1  0  0  0
  7  8  1  0  0  0
M  CHG 1   7   1
M  END
> <minimizedAffinity>
-11.35028

> <CNNscore>
0.4625848830

> <CNNaffinity>
7.4521164894

> <CNN_VS>
3.4472365379

> <CNNaffinity_variance>
0.0640651807

$$$$



 36 40  0  0  0  0  0  0  0  0999 V2000
   13.4668   -0.6288   61.1452 C   0  0  0  0  0  0  0  0  0  0  0  0
   10.4102   -1.4327   61.0318 C   0  0  0  0  0  0  0  0  0  0  0  0
   10.8853    0.5033   62.5798 C   0  0  0  0  0  0  0  0  0  0  0  0
   11.2477   -0.7640   59.9509 C   0  0  0  0  0  0  0  0  0  0  0  0
   11.7204    1.1601   61.4896 C   0  0  0  0  0  0  0  0  0  0  0  0
    9.8056   -0.4106   61.9966 C   0  0  0  0  0  0  0  0  0  0  0  0
   12.3036    0.1253   60.5595 N   0  0  0  0  0  0  0  0  0  0  0  0
   12.7124    0.6742   59.7478 H   0  0  0  0  0  0  0  0  0  0  0  0
    7.5045    0.1498   66.6704 C   0  0  0  0  0  0  0  0  0  0  0  0
    8.1715    1.1371   65.9149 C   0  0  0  0  0  0  0  0  0  0  0  0
    7.3919   -1.1618   66.2012 C   0  0  0  0  0  0  0  0  0  0  0  0
    8.7407    0.8350   64.6733 C   0  0  0  0  0  0  0  0  0  0  0  0
    7.9601   -1.4349   64.9767 C   0  0  0  0  0  0  0  0  0  0  0  0
    8.6201   -0.4641   64.2258 C   0  0  0  0  0  0  0  0  0  0  0  0
    8.6959   -2.4409   63.0522 C   0  0  0  0  0  0  0  0  0  0  0  0
    7.9976   -2.6413   64.2769 N   0  0  0  0  0  0  0  0  0  0  0  0
    9.0718   -1.0721   63.0491 N   0  0  0  0  0  0  0  0  0  0  0  0
    8.9155   -3.2851   62.1947 O   0  0  0  0  0  0  0  0  0  0  0  0
    7.5907   -3.5106   64.5991 H   0  0  0  0  0  0  0  0  0  0  0  0
   14.7597    0.0856   60.7780 C   0  0  0  0  0  0  0  0  0  0  0  0
   15.6193   -0.7812   59.8480 C   0  0  0  0  0  0  0  0  0  0  0  0
   15.9885   -0.0577   58.5272 C   0  0  0  0  0  0  0  0  0  0  0  0
   18.2526   -1.1428   58.8435 C   0  0  0  0  0  0  0  0  0  0  0  0
   17.8718    0.1737   56.8539 C   0  0  0  0  0  0  0  0  0  0  0  0
   19.5537   -1.4099   58.4178 C   0  0  0  0  0  0  0  0  0  0  0  0
   19.1729   -0.0934   56.4281 C   0  0  0  0  0  0  0  0  0  0  0  0
   17.4116   -0.3510   58.0616 C   0  0  0  0  0  0  0  0  0  0  0  0
   20.0139   -0.8852   57.2100 C   0  0  0  0  0  0  0  0  0  0  0  0
   21.2642   -1.1395   56.8023 F   0  0  0  0  0  0  0  0  0  0  0  0
   13.9112    0.5933   57.2409 C   0  0  0  0  0  0  0  0  0  0  0  0
   15.1371   -1.3669   56.5395 C   0  0  0  0  0  0  0  0  0  0  0  0
   12.9915    0.3860   56.2129 C   0  0  0  0  0  0  0  0  0  0  0  0
   14.2173   -1.5743   55.5116 C   0  0  0  0  0  0  0  0  0  0  0  0
   14.9840   -0.2832   57.4041 C   0  0  0  0  0  0  0  0  0  0  0  0
   13.1445   -0.6978   55.3483 C   0  0  0  0  0  0  0  0  0  0  0  0
   12.2598   -0.8985   54.3627 F   0  0  0  0  0  0  0  0  0  0  0  0
  9 10  1  0  0  0
  9 11  2  0  0  0
 10 12  2  0  0  0
 23 25  2  0  0  0
 23 27  1  0  0  0
 24 26  1  0  0  0
 24 27  2  0  0  0
 30 32  2  0  0  0
 30 34  1  0  0  0
 31 33  1  0  0  0
 31 34  2  0  0  0
 11 13  1  0  0  0
 12 14  1  0  0  0
 25 28  1  0  0  0
 26 28  2  0  0  0
 32 35  1  0  0  0
 33 35  2  0  0  0
 27 22  1  0  0  0
 34 22  1  0  0  0
 13 14  2  0  0  0
 13 16  1  0  0  0
 14 17  1  0  0  0
 28 29  1  0  0  0
 35 36  1  0  0  0
 15 16  1  0  0  0
 15 17  1  0  0  0
 15 18  2  0  0  0
  2  4  1  0  0  0
  2  6  1  0  0  0
  3  5  1  0  0  0
  3  6  1  0  0  0
  4  7  1  0  0  0
  5  7  1  0  0  0
  6 17  1  0  0  0
 20 21  1  0  0  0
 20  1  1  0  0  0
 21 22  1  0  0  0
  1  7  1  0  0  0
 16 19  1  0  0  0
  7  8  1  0  0  0
M  CHG 1   7   1
M  END
> <minimizedAffinity>
-11.43135

> <CNNscore>
0.4009942412

> <CNNaffinity>
7.4202108383

> <CNN_VS>
2.9754617214

> <CNNaffinity_variance>
0.0791665614

$$$$



 36 40  0  0  0  0  0  0  0  0999 V2000
   13.7288   -0.5547   61.0872 C   0  0  0  0  0  0  0  0  0  0  0  0
   10.6342   -1.1224   60.7658 C   0  0  0  0  0  0  0  0  0  0  0  0
   11.1668    0.5635   62.5672 C   0  0  0  0  0  0  0  0  0  0  0  0
   11.5590   -0.3819   59.8101 C   0  0  0  0  0  0  0  0  0  0  0  0
   12.0887    1.2935   61.6005 C   0  0  0  0  0  0  0  0  0  0  0  0
   10.0562   -0.1914   61.8337 C   0  0  0  0  0  0  0  0  0  0  0  0
   12.6431    0.3470   60.5647 N   0  0  0  0  0  0  0  0  0  0  0  0
   13.1211    0.9647   59.8455 H   0  0  0  0  0  0  0  0  0  0  0  0
    7.3988    0.0069   66.3450 C   0  0  0  0  0  0  0  0  0  0  0  0
    8.1311    1.0445   65.7305 C   0  0  0  0  0  0  0  0  0  0  0  0
    7.3130   -1.2587   65.7585 C   0  0  0  0  0  0  0  0  0  0  0  0
    8.7939    0.8398   64.5157 C   0  0  0  0  0  0  0  0  0  0  0  0
    7.9736   -1.4360   64.5631 C   0  0  0  0  0  0  0  0  0  0  0  0
    8.6984   -0.4151   63.9512 C   0  0  0  0  0  0  0  0  0  0  0  0
    8.8506   -2.2870   62.6230 C   0  0  0  0  0  0  0  0  0  0  0  0
    8.0565   -2.5795   63.7683 N   0  0  0  0  0  0  0  0  0  0  0  0
    9.2366   -0.9284   62.7657 N   0  0  0  0  0  0  0  0  0  0  0  0
    9.1303   -3.0590   61.7165 O   0  0  0  0  0  0  0  0  0  0  0  0
    7.6185   -3.4668   63.9826 H   0  0  0  0  0  0  0  0  0  0  0  0
   15.0740    0.1388   60.9244 C   0  0  0  0  0  0  0  0  0  0  0  0
   15.2676    0.6267   59.4823 C   0  0  0  0  0  0  0  0  0  0  0  0
   15.6214   -0.5229   58.5039 C   0  0  0  0  0  0  0  0  0  0  0  0
   13.8363    0.4938   57.0262 C   0  0  0  0  0  0  0  0  0  0  0  0
   14.8193   -1.6120   56.3659 C   0  0  0  0  0  0  0  0  0  0  0  0
   13.0245    0.4704   55.8922 C   0  0  0  0  0  0  0  0  0  0  0  0
   14.0075   -1.6354   55.2319 C   0  0  0  0  0  0  0  0  0  0  0  0
   14.7337   -0.5475   57.2631 C   0  0  0  0  0  0  0  0  0  0  0  0
   13.1101   -0.5942   54.9950 C   0  0  0  0  0  0  0  0  0  0  0  0
   12.3287   -0.6180   53.9073 F   0  0  0  0  0  0  0  0  0  0  0  0
   18.0029   -1.2501   58.9436 C   0  0  0  0  0  0  0  0  0  0  0  0
   17.5410    0.0569   56.9648 C   0  0  0  0  0  0  0  0  0  0  0  0
   19.3535   -1.2958   58.5982 C   0  0  0  0  0  0  0  0  0  0  0  0
   18.8917    0.0113   56.6195 C   0  0  0  0  0  0  0  0  0  0  0  0
   17.0966   -0.5738   58.1268 C   0  0  0  0  0  0  0  0  0  0  0  0
   19.7980   -0.6651   57.4362 C   0  0  0  0  0  0  0  0  0  0  0  0
   21.0954   -0.7066   57.1059 F   0  0  0  0  0  0  0  0  0  0  0  0
  9 10  1  0  0  0
  9 11  2  0  0  0
 10 12  2  0  0  0
 23 25  2  0  0  0
 23 27  1  0  0  0
 24 26  1  0  0  0
 24 27  2  0  0  0
 30 32  2  0  0  0
 30 34  1  0  0  0
 31 33  1  0  0  0
 31 34  2  0  0  0
 11 13  1  0  0  0
 12 14  1  0  0  0
 25 28  1  0  0  0
 26 28  2  0  0  0
 32 35  1  0  0  0
 33 35  2  0  0  0
 27 22  1  0  0  0
 34 22  1  0  0  0
 13 14  2  0  0  0
 13 16  1  0  0  0
 14 17  1  0  0  0
 28 29  1  0  0  0
 35 36  1  0  0  0
 15 16  1  0  0  0
 15 17  1  0  0  0
 15 18  2  0  0  0
  2  4  1  0  0  0
  2  6  1  0  0  0
  3  5  1  0  0  0
  3  6  1  0  0  0
  4  7  1  0  0  0
  5  7  1  0  0  0
  6 17  1  0  0  0
 20 21  1  0  0  0
 20  1  1  0  0  0
 21 22  1  0  0  0
  1  7  1  0  0  0
 16 19  1  0  0  0
  7  8  1  0  0  0
M  CHG 1   7   1
M  END
> <minimizedAffinity>
-11.02445

> <CNNscore>
0.3411773145

> <CNNaffinity>
7.4176344872

> <CNN_VS>
2.5307285786

> <CNNaffinity_variance>
0.0944304317

$$$$



 23 25  0  0  0  0  0  0  0  0999 V2000
   21.1091   -1.0634   57.4913 C   0  0  0  0  0  0  0  0  0  0  0  0
   13.9202   -0.4180   54.7429 C   0  0  0  0  0  0  0  0  0  0  0  0
   20.4195   -1.5905   58.5660 C   0  0  0  0  0  0  0  0  0  0  0  0
   13.8160   -1.3802   55.7376 C   0  0  0  0  0  0  0  0  0  0  0  0
   20.4078   -0.3716   56.5113 C   0  0  0  0  0  0  0  0  0  0  0  0
   14.9975    0.4631   54.7483 C   0  0  0  0  0  0  0  0  0  0  0  0
   19.0340   -1.4305   58.6462 C   0  0  0  0  0  0  0  0  0  0  0  0
   14.7890   -1.4568   56.7359 C   0  0  0  0  0  0  0  0  0  0  0  0
   19.0054   -0.1801   56.5845 C   0  0  0  0  0  0  0  0  0  0  0  0
   15.9824    0.3905   55.7497 C   0  0  0  0  0  0  0  0  0  0  0  0
   18.2777   -0.7318   57.6671 C   0  0  0  0  0  0  0  0  0  0  0  0
   15.8919   -0.5757   56.7655 C   0  0  0  0  0  0  0  0  0  0  0  0
   18.4246    0.6253   55.4415 C   0  0  0  0  0  0  0  0  0  0  0  0
   17.1267    1.3622   55.7297 C   0  0  0  0  0  0  0  0  0  0  0  0
   16.8628   -0.6666   57.7962 N   0  0  0  0  0  0  0  0  0  0  0  0
   16.2898   -0.8683   59.1367 C   0  0  0  0  0  0  0  0  0  0  0  0
   16.2527    1.6592   59.0066 C   0  0  0  0  0  0  0  0  0  0  0  0
   15.6607    0.4216   59.6903 C   0  0  0  0  0  0  0  0  0  0  0  0
   14.1302    0.4678   59.5969 C   0  0  0  0  0  0  0  0  0  0  0  0
   12.0294    0.2212   60.9113 C   0  0  0  0  0  0  0  0  0  0  0  0
   14.2006   -0.5133   61.8845 C   0  0  0  0  0  0  0  0  0  0  0  0
   13.5202    0.4557   60.9480 N   0  0  0  0  0  0  0  0  0  0  0  0
   13.6512    1.3940   61.3640 H   0  0  0  0  0  0  0  0  0  0  0  0
  1  3  1  0  0  0
  1  5  2  0  0  0
  2  4  1  0  0  0
  2  6  2  0  0  0
  3  7  2  0  0  0
  4  8  2  0  0  0
  5  9  1  0  0  0
  6 10  1  0  0  0
  7 11  1  0  0  0
  8 12  1  0  0  0
  9 11  2  0  0  0
  9 13  1  0  0  0
 10 12  2  0  0  0
 10 14  1  0  0  0
 11 15  1  0  0  0
 12 15  1  0  0  0
 13 14  1  0  0  0
 17 18  1  0  0  0
 20 22  1  0  0  0
 21 22  1  0  0  0
 16 18  1  0  0  0
 16 15  1  0  0  0
 19 18  1  0  0  0
 19 22  1  0  0  0
 22 23  1  0  0  0
M  CHG 1  22   1
M  END
> <minimizedAffinity>
-9.01343

> <CNNscore>
0.8691601753

> <CNNaffinity>
7.0358085632

> <CNN_VS>
6.1152443886

> <CNNaffinity_variance>
0.0837059841

$$$$



 23 25  0  0  0  0  0  0  0  0999 V2000
    9.0054   -2.4396   58.8821 C   0  0  0  0  0  0  0  0  0  0  0  0
    8.1629    1.0397   65.7258 C   0  0  0  0  0  0  0  0  0  0  0  0
    8.1476   -3.3430   59.4789 C   0  0  0  0  0  0  0  0  0  0  0  0
    7.0593    0.2032   65.6345 C   0  0  0  0  0  0  0  0  0  0  0  0
    9.6365   -1.4844   59.6697 C   0  0  0  0  0  0  0  0  0  0  0  0
    9.2847    0.7867   64.9418 C   0  0  0  0  0  0  0  0  0  0  0  0
    7.9202   -3.2772   60.8558 C   0  0  0  0  0  0  0  0  0  0  0  0
    7.0820   -0.8853   64.7604 C   0  0  0  0  0  0  0  0  0  0  0  0
    9.4356   -1.4139   61.0710 C   0  0  0  0  0  0  0  0  0  0  0  0
    9.3138   -0.3068   64.0576 C   0  0  0  0  0  0  0  0  0  0  0  0
    8.5431   -2.3173   61.6980 C   0  0  0  0  0  0  0  0  0  0  0  0
    8.2066   -1.1652   63.9538 C   0  0  0  0  0  0  0  0  0  0  0  0
   10.2330   -0.3282   61.7623 C   0  0  0  0  0  0  0  0  0  0  0  0
   10.5435   -0.5550   63.2329 C   0  0  0  0  0  0  0  0  0  0  0  0
    8.2098   -2.2833   63.0803 N   0  0  0  0  0  0  0  0  0  0  0  0
    7.6491   -3.5060   63.6774 C   0  0  0  0  0  0  0  0  0  0  0  0
    5.9447   -5.2777   63.0752 C   0  0  0  0  0  0  0  0  0  0  0  0
    6.2139   -3.7733   63.1929 C   0  0  0  0  0  0  0  0  0  0  0  0
    5.1250   -3.1242   64.0567 C   0  0  0  0  0  0  0  0  0  0  0  0
    3.6260   -4.2970   65.6628 C   0  0  0  0  0  0  0  0  0  0  0  0
    2.7532   -3.5737   63.4457 C   0  0  0  0  0  0  0  0  0  0  0  0
    3.9667   -4.0358   64.2156 N   0  0  0  0  0  0  0  0  0  0  0  0
    4.2270   -4.9530   63.8138 H   0  0  0  0  0  0  0  0  0  0  0  0
  1  3  1  0  0  0
  1  5  2  0  0  0
  2  4  1  0  0  0
  2  6  2  0  0  0
  3  7  2  0  0  0
  4  8  2  0  0  0
  5  9  1  0  0  0
  6 10  1  0  0  0
  7 11  1  0  0  0
  8 12  1  0  0  0
  9 11  2  0  0  0
  9 13  1  0  0  0
 10 12  2  0  0  0
 10 14  1  0  0  0
 11 15  1  0  0  0
 12 15  1  0  0  0
 13 14  1  0  0  0
 17 18  1  0  0  0
 20 22  1  0  0  0
 21 22  1  0  0  0
 16 18  1  0  0  0
 16 15  1  0  0  0
 19 18  1  0  0  0
 19 22  1  0  0  0
 22 23  1  0  0  0
M  CHG 1  22   1
M  END
> <minimizedAffinity>
-7.59704

> <CNNscore>
0.6959224343

> <CNNaffinity>
5.9768171310

> <CNN_VS>
4.1594009399

> <CNNaffinity_variance>
0.1189843863

$$$$



 23 25  0  0  0  0  0  0  0  0999 V2000
   11.9018    0.0580   55.8685 C   0  0  0  0  0  0  0  0  0  0  0  0
    7.8118   -3.4425   61.4065 C   0  0  0  0  0  0  0  0  0  0  0  0
   12.2130    0.8912   56.9254 C   0  0  0  0  0  0  0  0  0  0  0  0
    8.7553   -2.6998   62.1023 C   0  0  0  0  0  0  0  0  0  0  0  0
   10.8481   -0.8381   56.0013 C   0  0  0  0  0  0  0  0  0  0  0  0
    7.5008   -3.1025   60.0932 C   0  0  0  0  0  0  0  0  0  0  0  0
   11.4751    0.8142   58.1092 C   0  0  0  0  0  0  0  0  0  0  0  0
    9.3835   -1.6177   61.4827 C   0  0  0  0  0  0  0  0  0  0  0  0
   10.0739   -0.9174   57.1858 C   0  0  0  0  0  0  0  0  0  0  0  0
    8.1311   -2.0151   59.4621 C   0  0  0  0  0  0  0  0  0  0  0  0
   10.3913   -0.0870   58.2882 C   0  0  0  0  0  0  0  0  0  0  0  0
    9.0870   -1.2509   60.1519 C   0  0  0  0  0  0  0  0  0  0  0  0
    8.9499   -1.9305   57.1305 C   0  0  0  0  0  0  0  0  0  0  0  0
    7.7654   -1.6712   58.0471 C   0  0  0  0  0  0  0  0  0  0  0  0
    9.7313   -0.1409   59.5470 N   0  0  0  0  0  0  0  0  0  0  0  0
    9.8400    1.0349   60.4255 C   0  0  0  0  0  0  0  0  0  0  0  0
   11.0509    1.3798   62.6212 C   0  0  0  0  0  0  0  0  0  0  0  0
   11.2099    1.1044   61.1217 C   0  0  0  0  0  0  0  0  0  0  0  0
   12.0846   -0.1394   60.9193 C   0  0  0  0  0  0  0  0  0  0  0  0
   14.1305   -0.7343   62.2086 C   0  0  0  0  0  0  0  0  0  0  0  0
   14.3353    0.1998   59.9095 C   0  0  0  0  0  0  0  0  0  0  0  0
   13.5111    0.1737   61.1739 N   0  0  0  0  0  0  0  0  0  0  0  0
   13.5612    1.1296   61.5667 H   0  0  0  0  0  0  0  0  0  0  0  0
  1  3  1  0  0  0
  1  5  2  0  0  0
  2  4  1  0  0  0
  2  6  2  0  0  0
  3  7  2  0  0  0
  4  8  2  0  0  0
  5  9  1  0  0  0
  6 10  1  0  0  0
  7 11  1  0  0  0
  8 12  1  0  0  0
  9 11  2  0  0  0
  9 13  1  0  0  0
 10 12  2  0  0  0
 10 14  1  0  0  0
 11 15  1  0  0  0
 12 15  1  0  0  0
 13 14  1  0  0  0
 17 18  1  0  0  0
 20 22  1  0  0  0
 21 22  1  0  0  0
 16 18  1  0  0  0
 16 15  1  0  0  0
 19 18  1  0  0  0
 19 22  1  0  0  0
 22 23  1  0  0  0
M  CHG 1  22   1
M  END
> <minimizedAffinity>
-7.63190

> <CNNscore>
0.5493441820

> <CNNaffinity>
6.0202078819

> <CNN_VS>
3.3071660995

> <CNNaffinity_variance>
0.1199744493

$$$$



 23 25  0  0  0  0  0  0  0  0999 V2000
    7.2648    0.2552   66.0180 C   0  0  0  0  0  0  0  0  0  0  0  0
    8.7287   -3.3987   59.3729 C   0  0  0  0  0  0  0  0  0  0  0  0
    8.3050    1.0426   65.5638 C   0  0  0  0  0  0  0  0  0  0  0  0
    9.2801   -2.1379   59.1932 C   0  0  0  0  0  0  0  0  0  0  0  0
    7.0300   -0.9719   65.4098 C   0  0  0  0  0  0  0  0  0  0  0  0
    8.4919   -3.8688   60.6614 C   0  0  0  0  0  0  0  0  0  0  0  0
    9.0946    0.6012   64.4991 C   0  0  0  0  0  0  0  0  0  0  0  0
    9.5948   -1.3517   60.3032 C   0  0  0  0  0  0  0  0  0  0  0  0
    7.8322   -1.4473   64.3424 C   0  0  0  0  0  0  0  0  0  0  0  0
    8.8046   -3.0814   61.7841 C   0  0  0  0  0  0  0  0  0  0  0  0
    8.8895   -0.6450   63.8481 C   0  0  0  0  0  0  0  0  0  0  0  0
    9.3653   -1.8037   61.6210 C   0  0  0  0  0  0  0  0  0  0  0  0
    7.4428   -2.8182   63.8311 C   0  0  0  0  0  0  0  0  0  0  0  0
    8.5436   -3.6232   63.1598 C   0  0  0  0  0  0  0  0  0  0  0  0
    9.7027   -0.9904   62.7337 N   0  0  0  0  0  0  0  0  0  0  0  0
   11.0067   -0.3200   62.6064 C   0  0  0  0  0  0  0  0  0  0  0  0
   10.8018    2.0469   61.7333 C   0  0  0  0  0  0  0  0  0  0  0  0
   11.0669    0.5833   61.3629 C   0  0  0  0  0  0  0  0  0  0  0  0
   12.3786    0.4842   60.5738 C   0  0  0  0  0  0  0  0  0  0  0  0
   13.7958    1.6752   58.9079 C   0  0  0  0  0  0  0  0  0  0  0  0
   11.4073    1.1946   58.3938 C   0  0  0  0  0  0  0  0  0  0  0  0
   12.4124    1.4862   59.4817 N   0  0  0  0  0  0  0  0  0  0  0  0
   12.1422    2.4013   59.8818 H   0  0  0  0  0  0  0  0  0  0  0  0
  1  3  1  0  0  0
  1  5  2  0  0  0
  2  4  1  0  0  0
  2  6  2  0  0  0
  3  7  2  0  0  0
  4  8  2  0  0  0
  5  9  1  0  0  0
  6 10  1  0  0  0
  7 11  1  0  0  0
  8 12  1  0  0  0
  9 11  2  0  0  0
  9 13  1  0  0  0
 10 12  2  0  0  0
 10 14  1  0  0  0
 11 15  1  0  0  0
 12 15  1  0  0  0
 13 14  1  0  0  0
 17 18  1  0  0  0
 20 22  1  0  0  0
 21 22  1  0  0  0
 16 18  1  0  0  0
 16 15  1  0  0  0
 19 18  1  0  0  0
 19 22  1  0  0  0
 22 23  1  0  0  0
M  CHG 1  22   1
M  END
> <minimizedAffinity>
-7.95418

> <CNNscore>
0.5411765575

> <CNNaffinity>
5.9773507118

> <CNN_VS>
3.2348020077

> <CNNaffinity_variance>
0.1132550016

$$$$



 23 25  0  0  0  0  0  0  0  0999 V2000
    6.7846   -4.1254   62.0810 C   0  0  0  0  0  0  0  0  0  0  0  0
    9.6793    2.3915   59.1142 C   0  0  0  0  0  0  0  0  0  0  0  0
    7.2851   -3.5648   63.2400 C   0  0  0  0  0  0  0  0  0  0  0  0
    9.5286    2.6734   60.4647 C   0  0  0  0  0  0  0  0  0  0  0  0
    7.1713   -3.6004   60.8539 C   0  0  0  0  0  0  0  0  0  0  0  0
    9.7425    1.0671   58.6907 C   0  0  0  0  0  0  0  0  0  0  0  0
    8.1595   -2.4780   63.1627 C   0  0  0  0  0  0  0  0  0  0  0  0
    9.4436    1.6295   61.3879 C   0  0  0  0  0  0  0  0  0  0  0  0
    8.0735   -2.5119   60.7531 C   0  0  0  0  0  0  0  0  0  0  0  0
    9.6555    0.0105   59.6149 C   0  0  0  0  0  0  0  0  0  0  0  0
    8.5803   -1.9095   61.9304 C   0  0  0  0  0  0  0  0  0  0  0  0
    9.5050    0.2773   60.9859 C   0  0  0  0  0  0  0  0  0  0  0  0
    8.3999   -2.1009   59.3329 C   0  0  0  0  0  0  0  0  0  0  0  0
    9.7357   -1.4061   59.1241 C   0  0  0  0  0  0  0  0  0  0  0  0
    9.4264   -0.7663   61.9440 N   0  0  0  0  0  0  0  0  0  0  0  0
   10.2231   -0.5212   63.1569 C   0  0  0  0  0  0  0  0  0  0  0  0
   11.3588    1.5778   64.0001 C   0  0  0  0  0  0  0  0  0  0  0  0
   11.3442    0.5020   62.9082 C   0  0  0  0  0  0  0  0  0  0  0  0
   12.7431   -0.1138   62.7773 C   0  0  0  0  0  0  0  0  0  0  0  0
   12.9876    0.5370   60.3860 C   0  0  0  0  0  0  0  0  0  0  0  0
   14.2280   -1.4311   61.2739 C   0  0  0  0  0  0  0  0  0  0  0  0
   12.9818   -0.5875   61.3930 N   0  0  0  0  0  0  0  0  0  0  0  0
   12.1940   -1.2037   61.1280 H   0  0  0  0  0  0  0  0  0  0  0  0
  1  3  1  0  0  0
  1  5  2  0  0  0
  2  4  1  0  0  0
  2  6  2  0  0  0
  3  7  2  0  0  0
  4  8  2  0  0  0
  5  9  1  0  0  0
  6 10  1  0  0  0
  7 11  1  0  0  0
  8 12  1  0  0  0
  9 11  2  0  0  0
  9 13  1  0  0  0
 10 12  2  0  0  0
 10 14  1  0  0  0
 11 15  1  0  0  0
 12 15  1  0  0  0
 13 14  1  0  0  0
 17 18  1  0  0  0
 20 22  1  0  0  0
 21 22  1  0  0  0
 16 18  1  0  0  0
 16 15  1  0  0  0
 19 18  1  0  0  0
 19 22  1  0  0  0
 22 23  1  0  0  0
M  CHG 1  22   1
M  END
> <minimizedAffinity>
-7.11798

> <CNNscore>
0.5290627480

> <CNNaffinity>
6.2091951370

> <CNN_VS>
3.2850537300

> <CNNaffinity_variance>
0.0760687888

$$$$



 23 25  0  0  0  0  0  0  0  0999 V2000
   18.5681   -0.8146   58.4487 C   0  0  0  0  0  0  0  0  0  0  0  0
   12.8996   -0.8271   53.2029 C   0  0  0  0  0  0  0  0  0  0  0  0
   17.4939   -1.0185   59.2929 C   0  0  0  0  0  0  0  0  0  0  0  0
   12.3488   -1.4806   54.2963 C   0  0  0  0  0  0  0  0  0  0  0  0
   18.3331   -0.4044   57.1420 C   0  0  0  0  0  0  0  0  0  0  0  0
   14.0008    0.0051   53.3818 C   0  0  0  0  0  0  0  0  0  0  0  0
   16.1941   -0.8207   58.8205 C   0  0  0  0  0  0  0  0  0  0  0  0
   12.9002   -1.2982   55.5659 C   0  0  0  0  0  0  0  0  0  0  0  0
   17.0236   -0.1780   56.6495 C   0  0  0  0  0  0  0  0  0  0  0  0
   14.5626    0.1920   54.6576 C   0  0  0  0  0  0  0  0  0  0  0  0
   15.9083   -0.4027   57.4929 C   0  0  0  0  0  0  0  0  0  0  0  0
   14.0168   -0.4599   55.7759 C   0  0  0  0  0  0  0  0  0  0  0  0
   16.9701    0.2953   55.2122 C   0  0  0  0  0  0  0  0  0  0  0  0
   15.7453    1.1033   54.8156 C   0  0  0  0  0  0  0  0  0  0  0  0
   14.5534   -0.2824   57.0774 N   0  0  0  0  0  0  0  0  0  0  0  0
   13.5325   -0.1027   58.1220 C   0  0  0  0  0  0  0  0  0  0  0  0
   11.4783    1.2020   57.4259 C   0  0  0  0  0  0  0  0  0  0  0  0
   12.8765    1.2866   58.0484 C   0  0  0  0  0  0  0  0  0  0  0  0
   12.7946    2.0180   59.3943 C   0  0  0  0  0  0  0  0  0  0  0  0
   11.5075    0.7906   61.1375 C   0  0  0  0  0  0  0  0  0  0  0  0
   10.8395    3.1009   60.4922 C   0  0  0  0  0  0  0  0  0  0  0  0
   11.4693    1.8108   60.0256 N   0  0  0  0  0  0  0  0  0  0  0  0
   10.8320    1.4259   59.3071 H   0  0  0  0  0  0  0  0  0  0  0  0
  1  3  1  0  0  0
  1  5  2  0  0  0
  2  4  1  0  0  0
  2  6  2  0  0  0
  3  7  2  0  0  0
  4  8  2  0  0  0
  5  9  1  0  0  0
  6 10  1  0  0  0
  7 11  1  0  0  0
  8 12  1  0  0  0
  9 11  2  0  0  0
  9 13  1  0  0  0
 10 12  2  0  0  0
 10 14  1  0  0  0
 11 15  1  0  0  0
 12 15  1  0  0  0
 13 14  1  0  0  0
 17 18  1  0  0  0
 20 22  1  0  0  0
 21 22  1  0  0  0
 16 18  1  0  0  0
 16 15  1  0  0  0
 19 18  1  0  0  0
 19 22  1  0  0  0
 22 23  1  0  0  0
M  CHG 1  22   1
M  END
> <minimizedAffinity>
-7.80363

> <CNNscore>
0.4316118062

> <CNNaffinity>
6.1414651871

> <CNN_VS>
2.6507289410

> <CNNaffinity_variance>
0.1030700207

$$$$



 23 25  0  0  0  0  0  0  0  0999 V2000
   15.1647    0.4621   58.0081 C   0  0  0  0  0  0  0  0  0  0  0  0
    7.8949   -2.1405   57.8424 C   0  0  0  0  0  0  0  0  0  0  0  0
   14.5903    1.3725   58.8738 C   0  0  0  0  0  0  0  0  0  0  0  0
    7.9630   -1.4041   59.0167 C   0  0  0  0  0  0  0  0  0  0  0  0
   14.3423   -0.3340   57.2203 C   0  0  0  0  0  0  0  0  0  0  0  0
    8.8257   -1.9131   56.8329 C   0  0  0  0  0  0  0  0  0  0  0  0
   13.1989    1.4718   58.9519 C   0  0  0  0  0  0  0  0  0  0  0  0
    8.9609   -0.4409   59.1769 C   0  0  0  0  0  0  0  0  0  0  0  0
   12.9293   -0.2342   57.2691 C   0  0  0  0  0  0  0  0  0  0  0  0
    9.8349   -0.9458   56.9882 C   0  0  0  0  0  0  0  0  0  0  0  0
   12.3211    0.6776   58.1661 C   0  0  0  0  0  0  0  0  0  0  0  0
    9.9175   -0.1897   58.1693 C   0  0  0  0  0  0  0  0  0  0  0  0
   12.2046   -1.1601   56.3153 C   0  0  0  0  0  0  0  0  0  0  0  0
   10.8174   -0.7208   55.8755 C   0  0  0  0  0  0  0  0  0  0  0  0
   10.9164    0.8015   58.3512 N   0  0  0  0  0  0  0  0  0  0  0  0
   10.4143    2.0488   58.9496 C   0  0  0  0  0  0  0  0  0  0  0  0
   10.8101    3.7645   60.7679 C   0  0  0  0  0  0  0  0  0  0  0  0
   11.0395    2.3137   60.3298 C   0  0  0  0  0  0  0  0  0  0  0  0
   10.5584    1.3632   61.4335 C   0  0  0  0  0  0  0  0  0  0  0  0
   11.1152    1.1449   63.8510 C   0  0  0  0  0  0  0  0  0  0  0  0
   12.4233   -0.1220   62.1526 C   0  0  0  0  0  0  0  0  0  0  0  0
   11.6295    1.1314   62.4319 N   0  0  0  0  0  0  0  0  0  0  0  0
   12.3014    1.9153   62.3646 H   0  0  0  0  0  0  0  0  0  0  0  0
  1  3  1  0  0  0
  1  5  2  0  0  0
  2  4  1  0  0  0
  2  6  2  0  0  0
  3  7  2  0  0  0
  4  8  2  0  0  0
  5  9  1  0  0  0
  6 10  1  0  0  0
  7 11  1  0  0  0
  8 12  1  0  0  0
  9 11  2  0  0  0
  9 13  1  0  0  0
 10 12  2  0  0  0
 10 14  1  0  0  0
 11 15  1  0  0  0
 12 15  1  0  0  0
 13 14  1  0  0  0
 17 18  1  0  0  0
 20 22  1  0  0  0
 21 22  1  0  0  0
 16 18  1  0  0  0
 16 15  1  0  0  0
 19 18  1  0  0  0
 19 22  1  0  0  0
 22 23  1  0  0  0
M  CHG 1  22   1
M  END
> <minimizedAffinity>
-8.13897

> <CNNscore>
0.4191177785

> <CNNaffinity>
5.9635071754

> <CNN_VS>
2.4994118214

> <CNNaffinity_variance>
0.2947306335

$$$$



 23 25  0  0  0  0  0  0  0  0999 V2000
   17.3697   -0.7973   58.8324 C   0  0  0  0  0  0  0  0  0  0  0  0
   10.1484   -1.2428   56.1295 C   0  0  0  0  0  0  0  0  0  0  0  0
   16.6988   -0.2824   59.9246 C   0  0  0  0  0  0  0  0  0  0  0  0
    9.9895   -1.1698   57.5063 C   0  0  0  0  0  0  0  0  0  0  0  0
   16.6972   -0.9226   57.6229 C   0  0  0  0  0  0  0  0  0  0  0  0
   11.3341   -0.8013   55.5495 C   0  0  0  0  0  0  0  0  0  0  0  0
   15.3588    0.0931   59.8010 C   0  0  0  0  0  0  0  0  0  0  0  0
   11.0165   -0.6534   58.2986 C   0  0  0  0  0  0  0  0  0  0  0  0
   15.3443   -0.5282   57.4711 C   0  0  0  0  0  0  0  0  0  0  0  0
   12.3737   -0.2818   56.3418 C   0  0  0  0  0  0  0  0  0  0  0  0
   14.6329   -0.0185   58.5846 C   0  0  0  0  0  0  0  0  0  0  0  0
   12.2292   -0.1984   57.7367 C   0  0  0  0  0  0  0  0  0  0  0  0
   14.7939   -0.7110   56.0724 C   0  0  0  0  0  0  0  0  0  0  0  0
   13.6360    0.1932   55.6821 C   0  0  0  0  0  0  0  0  0  0  0  0
   13.2547    0.3317   58.5617 N   0  0  0  0  0  0  0  0  0  0  0  0
   12.7641    1.2412   59.6096 C   0  0  0  0  0  0  0  0  0  0  0  0
   12.7400   -0.2224   61.6745 C   0  0  0  0  0  0  0  0  0  0  0  0
   11.8825    0.5094   60.6359 C   0  0  0  0  0  0  0  0  0  0  0  0
   10.8679    1.4097   61.3521 C   0  0  0  0  0  0  0  0  0  0  0  0
    8.9812    2.4751   60.1245 C   0  0  0  0  0  0  0  0  0  0  0  0
   10.8231    3.8796   61.0384 C   0  0  0  0  0  0  0  0  0  0  0  0
   10.4481    2.5297   60.4762 N   0  0  0  0  0  0  0  0  0  0  0  0
   10.9595    2.4416   59.5811 H   0  0  0  0  0  0  0  0  0  0  0  0
  1  3  1  0  0  0
  1  5  2  0  0  0
  2  4  1  0  0  0
  2  6  2  0  0  0
  3  7  2  0  0  0
  4  8  2  0  0  0
  5  9  1  0  0  0
  6 10  1  0  0  0
  7 11  1  0  0  0
  8 12  1  0  0  0
  9 11  2  0  0  0
  9 13  1  0  0  0
 10 12  2  0  0  0
 10 14  1  0  0  0
 11 15  1  0  0  0
 12 15  1  0  0  0
 13 14  1  0  0  0
 17 18  1  0  0  0
 20 22  1  0  0  0
 21 22  1  0  0  0
 16 18  1  0  0  0
 16 15  1  0  0  0
 19 18  1  0  0  0
 19 22  1  0  0  0
 22 23  1  0  0  0
M  CHG 1  22   1
M  END
> <minimizedAffinity>
-8.18573

> <CNNscore>
0.3907852173

> <CNNaffinity>
6.0354871750

> <CNN_VS>
2.3585791588

> <CNNaffinity_variance>
0.1398835182

$$$$



 23 25  0  0  0  0  0  0  0  0999 V2000
   10.1765    0.6461   64.8223 C   0  0  0  0  0  0  0  0  0  0  0  0
    9.0406   -1.5988   57.5202 C   0  0  0  0  0  0  0  0  0  0  0  0
   11.2233    1.3205   64.2243 C   0  0  0  0  0  0  0  0  0  0  0  0
    9.8066   -0.4475   57.4039 C   0  0  0  0  0  0  0  0  0  0  0  0
    9.5185   -0.3493   64.1103 C   0  0  0  0  0  0  0  0  0  0  0  0
    9.0313   -2.3005   58.7221 C   0  0  0  0  0  0  0  0  0  0  0  0
   11.5965    1.0010   62.9165 C   0  0  0  0  0  0  0  0  0  0  0  0
   10.5629   -0.0026   58.4899 C   0  0  0  0  0  0  0  0  0  0  0  0
    9.8950   -0.7030   62.7904 C   0  0  0  0  0  0  0  0  0  0  0  0
    9.7891   -1.8570   59.8209 C   0  0  0  0  0  0  0  0  0  0  0  0
   10.9513   -0.0082   62.1522 C   0  0  0  0  0  0  0  0  0  0  0  0
   10.5720   -0.6949   59.7204 C   0  0  0  0  0  0  0  0  0  0  0  0
    9.0825   -1.8310   62.1903 C   0  0  0  0  0  0  0  0  0  0  0  0
    9.7623   -2.6430   61.0998 C   0  0  0  0  0  0  0  0  0  0  0  0
   11.3565   -0.2286   60.8068 N   0  0  0  0  0  0  0  0  0  0  0  0
   12.7060    0.2128   60.4195 C   0  0  0  0  0  0  0  0  0  0  0  0
   13.7519   -1.7797   61.5781 C   0  0  0  0  0  0  0  0  0  0  0  0
   13.7718   -0.2547   61.4252 C   0  0  0  0  0  0  0  0  0  0  0  0
   15.1966    0.2084   61.0956 C   0  0  0  0  0  0  0  0  0  0  0  0
   15.8295    1.4947   59.0593 C   0  0  0  0  0  0  0  0  0  0  0  0
   16.4424   -0.9110   59.2529 C   0  0  0  0  0  0  0  0  0  0  0  0
   15.4428    0.1538   59.6347 N   0  0  0  0  0  0  0  0  0  0  0  0
   14.5552   -0.1095   59.1728 H   0  0  0  0  0  0  0  0  0  0  0  0
  1  3  1  0  0  0
  1  5  2  0  0  0
  2  4  1  0  0  0
  2  6  2  0  0  0
  3  7  2  0  0  0
  4  8  2  0  0  0
  5  9  1  0  0  0
  6 10  1  0  0  0
  7 11  1  0  0  0
  8 12  1  0  0  0
  9 11  2  0  0  0
  9 13  1  0  0  0
 10 12  2  0  0  0
 10 14  1  0  0  0
 11 15  1  0  0  0
 12 15  1  0  0  0
 13 14  1  0  0  0
 17 18  1  0  0  0
 20 22  1  0  0  0
 21 22  1  0  0  0
 16 18  1  0  0  0
 16 15  1  0  0  0
 19 18  1  0  0  0
 19 22  1  0  0  0
 22 23  1  0  0  0
M  CHG 1  22   1
M  END
> <minimizedAffinity>
-7.37967

> <CNNscore>
0.3795539141

> <CNNaffinity>
6.1502838135

> <CNN_VS>
2.3343641758

> <CNNaffinity_variance>
0.1668408215

$$$$



 30 33  0  0  0  0  0  0  0  0999 V2000
   10.8760    0.4896   59.1935 C   0  0  0  0  0  0  0  0  0  0  0  0
   12.7418    0.1457   60.9089 C   0  0  0  0  0  0  0  0  0  0  0  0
   13.0380    1.6906   59.0166 C   0  0  0  0  0  0  0  0  0  0  0  0
   14.0785   -0.5170   60.6094 C   0  0  0  0  0  0  0  0  0  0  0  0
   14.3853    1.0622   58.6875 C   0  0  0  0  0  0  0  0  0  0  0  0
   12.1675    0.7259   59.6882 N   0  0  0  0  0  0  0  0  0  0  0  0
   14.9921    0.4963   59.9530 N   0  0  0  0  0  0  0  0  0  0  0  0
   10.3754    1.1250   58.2661 O   0  0  0  0  0  0  0  0  0  0  0  0
   15.1073    1.2777   60.6132 H   0  0  0  0  0  0  0  0  0  0  0  0
    9.6847   -2.0299   61.7245 C   0  0  0  0  0  0  0  0  0  0  0  0
    8.6170   -2.6426   61.0587 C   0  0  0  0  0  0  0  0  0  0  0  0
   10.4160   -1.0124   61.1147 C   0  0  0  0  0  0  0  0  0  0  0  0
    7.4578   -1.8233   57.6904 C   0  0  0  0  0  0  0  0  0  0  0  0
    7.2936   -2.6042   58.8111 C   0  0  0  0  0  0  0  0  0  0  0  0
    8.2850   -2.2189   59.7565 C   0  0  0  0  0  0  0  0  0  0  0  0
   10.1051   -0.5756   59.8238 C   0  0  0  0  0  0  0  0  0  0  0  0
    9.0351   -1.1971   59.1703 C   0  0  0  0  0  0  0  0  0  0  0  0
    8.5108   -0.9780   57.9164 N   0  0  0  0  0  0  0  0  0  0  0  0
    8.8532   -0.2923   57.2575 H   0  0  0  0  0  0  0  0  0  0  0  0
    6.2942   -3.6090   58.9558 C   0  0  0  0  0  0  0  0  0  0  0  0
    5.4799   -4.4273   59.0736 N   0  0  0  0  0  0  0  0  0  0  0  0
   16.3650   -0.0652   59.7109 C   0  0  0  0  0  0  0  0  0  0  0  0
   16.6495   -0.1462   58.2144 C   0  0  0  0  0  0  0  0  0  0  0  0
   18.8208   -1.2661   58.7860 C   0  0  0  0  0  0  0  0  0  0  0  0
   18.6322   -0.0998   56.6786 C   0  0  0  0  0  0  0  0  0  0  0  0
   20.1386   -1.6061   58.4800 C   0  0  0  0  0  0  0  0  0  0  0  0
   19.9500   -0.4397   56.3725 C   0  0  0  0  0  0  0  0  0  0  0  0
   18.0676   -0.5131   57.8852 C   0  0  0  0  0  0  0  0  0  0  0  0
   20.7031   -1.1929   57.2733 C   0  0  0  0  0  0  0  0  0  0  0  0
   21.9695   -1.5169   56.9805 F   0  0  0  0  0  0  0  0  0  0  0  0
 20 14  1  0  0  0
 20 21  3  0  0  0
 10 11  2  0  0  0
 10 12  1  0  0  0
 11 15  1  0  0  0
 12 16  2  0  0  0
 24 26  2  0  0  0
 24 28  1  0  0  0
 25 27  1  0  0  0
 25 28  2  0  0  0
 26 29  1  0  0  0
 27 29  2  0  0  0
 13 14  2  0  0  0
 13 18  1  0  0  0
 14 15  1  0  0  0
 15 17  2  0  0  0
 16 17  1  0  0  0
 16  1  1  0  0  0
 28 23  1  0  0  0
 17 18  1  0  0  0
 29 30  1  0  0  0
  1  6  1  0  0  0
  1  8  2  0  0  0
  2  4  1  0  0  0
  2  6  1  0  0  0
  3  5  1  0  0  0
  3  6  1  0  0  0
  4  7  1  0  0  0
  5  7  1  0  0  0
 23 22  1  0  0  0
 22  7  1  0  0  0
 18 19  1  0  0  0
  7  9  1  0  0  0
M  CHG 1   7   1
M  END
> <minimizedAffinity>
-10.28669

> <CNNscore>
0.7858277559

> <CNNaffinity>
6.8564748764

> <CNN_VS>
5.3880081177

> <CNNaffinity_variance>
0.0286043398

$$$$



 30 33  0  0  0  0  0  0  0  0999 V2000
   10.2250    0.1035   60.9413 C   0  0  0  0  0  0  0  0  0  0  0  0
   12.4421    0.3126   62.1995 C   0  0  0  0  0  0  0  0  0  0  0  0
   12.2193    1.1378   59.8920 C   0  0  0  0  0  0  0  0  0  0  0  0
   13.7155   -0.4365   61.8351 C   0  0  0  0  0  0  0  0  0  0  0  0
   13.4944    0.4111   59.4868 C   0  0  0  0  0  0  0  0  0  0  0  0
   11.5780    0.4664   61.0221 N   0  0  0  0  0  0  0  0  0  0  0  0
   14.3993    0.2850   60.6932 N   0  0  0  0  0  0  0  0  0  0  0  0
    9.4945    0.4051   59.9980 O   0  0  0  0  0  0  0  0  0  0  0  0
   14.6121    1.2388   61.0171 H   0  0  0  0  0  0  0  0  0  0  0  0
    9.5195   -1.1398   64.4240 C   0  0  0  0  0  0  0  0  0  0  0  0
    8.6220   -2.1884   64.1925 C   0  0  0  0  0  0  0  0  0  0  0  0
   10.0379   -0.3976   63.3646 C   0  0  0  0  0  0  0  0  0  0  0  0
    7.4083   -3.2667   60.9176 C   0  0  0  0  0  0  0  0  0  0  0  0
    7.3810   -3.4561   62.2800 C   0  0  0  0  0  0  0  0  0  0  0  0
    8.2439   -2.4898   62.8689 C   0  0  0  0  0  0  0  0  0  0  0  0
    9.6773   -0.6783   62.0436 C   0  0  0  0  0  0  0  0  0  0  0  0
    8.7792   -1.7293   61.8271 C   0  0  0  0  0  0  0  0  0  0  0  0
    8.2546   -2.2232   60.6541 N   0  0  0  0  0  0  0  0  0  0  0  0
    8.4636   -1.8675   59.7314 H   0  0  0  0  0  0  0  0  0  0  0  0
    6.6104   -4.4553   62.9410 C   0  0  0  0  0  0  0  0  0  0  0  0
    5.9828   -5.2695   63.4794 N   0  0  0  0  0  0  0  0  0  0  0  0
   15.7147   -0.3503   60.3401 C   0  0  0  0  0  0  0  0  0  0  0  0
   15.7952   -0.6057   58.8383 C   0  0  0  0  0  0  0  0  0  0  0  0
   17.4976    0.0719   57.1241 C   0  0  0  0  0  0  0  0  0  0  0  0
   18.1966   -1.3179   58.9725 C   0  0  0  0  0  0  0  0  0  0  0  0
   18.7993    0.0603   56.6230 C   0  0  0  0  0  0  0  0  0  0  0  0
   19.4984   -1.3296   58.4714 C   0  0  0  0  0  0  0  0  0  0  0  0
   17.1963   -0.6171   58.2989 C   0  0  0  0  0  0  0  0  0  0  0  0
   19.7997   -0.6404   57.2966 C   0  0  0  0  0  0  0  0  0  0  0  0
   21.0492   -0.6539   56.8140 F   0  0  0  0  0  0  0  0  0  0  0  0
 20 14  1  0  0  0
 20 21  3  0  0  0
 10 11  2  0  0  0
 10 12  1  0  0  0
 11 15  1  0  0  0
 12 16  2  0  0  0
 24 26  2  0  0  0
 24 28  1  0  0  0
 25 27  1  0  0  0
 25 28  2  0  0  0
 26 29  1  0  0  0
 27 29  2  0  0  0
 13 14  2  0  0  0
 13 18  1  0  0  0
 14 15  1  0  0  0
 15 17  2  0  0  0
 16 17  1  0  0  0
 16  1  1  0  0  0
 28 23  1  0  0  0
 17 18  1  0  0  0
 29 30  1  0  0  0
  1  6  1  0  0  0
  1  8  2  0  0  0
  2  4  1  0  0  0
  2  6  1  0  0  0
  3  5  1  0  0  0
  3  6  1  0  0  0
  4  7  1  0  0  0
  5  7  1  0  0  0
 23 22  1  0  0  0
 22  7  1  0  0  0
 18 19  1  0  0  0
  7  9  1  0  0  0
M  CHG 1   7   1
M  END
> <minimizedAffinity>
-9.76669

> <CNNscore>
0.7841584086

> <CNNaffinity>
6.8795585632

> <CNN_VS>
5.3946638107

> <CNNaffinity_variance>
0.1128222793

$$$$



 30 33  0  0  0  0  0  0  0  0999 V2000
   10.8163    0.2498   60.2091 C   0  0  0  0  0  0  0  0  0  0  0  0
   13.0380   -0.1008   61.4269 C   0  0  0  0  0  0  0  0  0  0  0  0
   12.9373    1.1909   59.3349 C   0  0  0  0  0  0  0  0  0  0  0  0
   14.1960   -0.9286   60.8893 C   0  0  0  0  0  0  0  0  0  0  0  0
   14.1001    0.3927   58.7616 C   0  0  0  0  0  0  0  0  0  0  0  0
   12.2063    0.4013   60.3257 N   0  0  0  0  0  0  0  0  0  0  0  0
   14.9760   -0.0938   59.8957 N   0  0  0  0  0  0  0  0  0  0  0  0
   10.1369    0.8304   59.3630 O   0  0  0  0  0  0  0  0  0  0  0  0
   15.3182    0.7379   60.3966 H   0  0  0  0  0  0  0  0  0  0  0  0
    9.1400   -2.8030   61.6385 C   0  0  0  0  0  0  0  0  0  0  0  0
    8.8930   -2.4183   62.9613 C   0  0  0  0  0  0  0  0  0  0  0  0
    9.7653   -1.9328   60.7475 C   0  0  0  0  0  0  0  0  0  0  0  0
    9.7578    0.8131   64.4346 C   0  0  0  0  0  0  0  0  0  0  0  0
    9.1957   -0.4287   64.6209 C   0  0  0  0  0  0  0  0  0  0  0  0
    9.2850   -1.1339   63.3881 C   0  0  0  0  0  0  0  0  0  0  0  0
   10.1629   -0.6541   61.1483 C   0  0  0  0  0  0  0  0  0  0  0  0
    9.9096   -0.2831   62.4736 C   0  0  0  0  0  0  0  0  0  0  0  0
   10.1852    0.8917   63.1363 N   0  0  0  0  0  0  0  0  0  0  0  0
   10.6376    1.6962   62.7245 H   0  0  0  0  0  0  0  0  0  0  0  0
    8.6354   -0.8854   65.8484 C   0  0  0  0  0  0  0  0  0  0  0  0
    8.1790   -1.2574   66.8484 N   0  0  0  0  0  0  0  0  0  0  0  0
   16.1914   -0.8193   59.3905 C   0  0  0  0  0  0  0  0  0  0  0  0
   16.7534   -0.1193   58.1572 C   0  0  0  0  0  0  0  0  0  0  0  0
   18.7366   -0.1100   56.6202 C   0  0  0  0  0  0  0  0  0  0  0  0
   18.9049   -1.2745   58.7303 C   0  0  0  0  0  0  0  0  0  0  0  0
   20.0480   -0.4741   56.3146 C   0  0  0  0  0  0  0  0  0  0  0  0
   20.2164   -1.6387   58.4247 C   0  0  0  0  0  0  0  0  0  0  0  0
   18.1651   -0.5102   57.8281 C   0  0  0  0  0  0  0  0  0  0  0  0
   20.7879   -1.2384   57.2169 C   0  0  0  0  0  0  0  0  0  0  0  0
   22.0463   -1.5904   56.9224 F   0  0  0  0  0  0  0  0  0  0  0  0
 20 14  1  0  0  0
 20 21  3  0  0  0
 10 11  2  0  0  0
 10 12  1  0  0  0
 11 15  1  0  0  0
 12 16  2  0  0  0
 24 26  2  0  0  0
 24 28  1  0  0  0
 25 27  1  0  0  0
 25 28  2  0  0  0
 26 29  1  0  0  0
 27 29  2  0  0  0
 13 14  2  0  0  0
 13 18  1  0  0  0
 14 15  1  0  0  0
 15 17  2  0  0  0
 16 17  1  0  0  0
 16  1  1  0  0  0
 28 23  1  0  0  0
 17 18  1  0  0  0
 29 30  1  0  0  0
  1  6  1  0  0  0
  1  8  2  0  0  0
  2  4  1  0  0  0
  2  6  1  0  0  0
  3  5  1  0  0  0
  3  6  1  0  0  0
  4  7  1  0  0  0
  5  7  1  0  0  0
 23 22  1  0  0  0
 22  7  1  0  0  0
 18 19  1  0  0  0
  7  9  1  0  0  0
M  CHG 1   7   1
M  END
> <minimizedAffinity>
-10.44665

> <CNNscore>
0.7835533619

> <CNNaffinity>
6.9504218102

> <CNN_VS>
5.4460263252

> <CNNaffinity_variance>
0.0381899998

$$$$



 30 33  0  0  0  0  0  0  0  0999 V2000
   10.0447    0.7976   59.4588 C   0  0  0  0  0  0  0  0  0  0  0  0
   12.2939    0.1159   60.4680 C   0  0  0  0  0  0  0  0  0  0  0  0
   11.9862    2.3400   59.4610 C   0  0  0  0  0  0  0  0  0  0  0  0
   13.5702   -0.0975   59.6674 C   0  0  0  0  0  0  0  0  0  0  0  0
   13.2625    2.1715   58.6480 C   0  0  0  0  0  0  0  0  0  0  0  0
   11.3921    1.0388   59.7669 N   0  0  0  0  0  0  0  0  0  0  0  0
   14.2054    1.2484   59.3890 N   0  0  0  0  0  0  0  0  0  0  0  0
    9.2806    1.6596   59.0257 O   0  0  0  0  0  0  0  0  0  0  0  0
   14.4090    1.6850   60.2988 H   0  0  0  0  0  0  0  0  0  0  0  0
    8.8555   -2.7069   58.7681 C   0  0  0  0  0  0  0  0  0  0  0  0
    8.5764   -3.1879   60.0524 C   0  0  0  0  0  0  0  0  0  0  0  0
    9.3326   -1.4111   58.5798 C   0  0  0  0  0  0  0  0  0  0  0  0
    8.9837   -1.3115   63.1627 C   0  0  0  0  0  0  0  0  0  0  0  0
    8.6122   -2.4946   62.5669 C   0  0  0  0  0  0  0  0  0  0  0  0
    8.7835   -2.3446   61.1622 C   0  0  0  0  0  0  0  0  0  0  0  0
    9.5455   -0.5567   59.6654 C   0  0  0  0  0  0  0  0  0  0  0  0
    9.2623   -1.0511   60.9435 C   0  0  0  0  0  0  0  0  0  0  0  0
    9.3741   -0.4469   62.1755 N   0  0  0  0  0  0  0  0  0  0  0  0
    9.6974    0.4982   62.3295 H   0  0  0  0  0  0  0  0  0  0  0  0
    8.1445   -3.6412   63.2710 C   0  0  0  0  0  0  0  0  0  0  0  0
    7.7635   -4.5752   63.8447 N   0  0  0  0  0  0  0  0  0  0  0  0
   15.5218    1.1073   58.6778 C   0  0  0  0  0  0  0  0  0  0  0  0
   15.9995   -0.3405   58.7266 C   0  0  0  0  0  0  0  0  0  0  0  0
   18.3410   -1.1869   59.0379 C   0  0  0  0  0  0  0  0  0  0  0  0
   17.7763   -0.0556   56.9791 C   0  0  0  0  0  0  0  0  0  0  0  0
   19.6473   -1.3643   58.5821 C   0  0  0  0  0  0  0  0  0  0  0  0
   19.0827   -0.2329   56.5234 C   0  0  0  0  0  0  0  0  0  0  0  0
   17.4055   -0.5326   58.2363 C   0  0  0  0  0  0  0  0  0  0  0  0
   20.0182   -0.8873   57.3249 C   0  0  0  0  0  0  0  0  0  0  0  0
   21.2734   -1.0552   56.8883 F   0  0  0  0  0  0  0  0  0  0  0  0
 20 14  1  0  0  0
 20 21  3  0  0  0
 10 11  2  0  0  0
 10 12  1  0  0  0
 11 15  1  0  0  0
 12 16  2  0  0  0
 24 26  2  0  0  0
 24 28  1  0  0  0
 25 27  1  0  0  0
 25 28  2  0  0  0
 26 29  1  0  0  0
 27 29  2  0  0  0
 13 14  2  0  0  0
 13 18  1  0  0  0
 14 15  1  0  0  0
 15 17  2  0  0  0
 16 17  1  0  0  0
 16  1  1  0  0  0
 28 23  1  0  0  0
 17 18  1  0  0  0
 29 30  1  0  0  0
  1  6  1  0  0  0
  1  8  2  0  0  0
  2  4  1  0  0  0
  2  6  1  0  0  0
  3  5  1  0  0  0
  3  6  1  0  0  0
  4  7  1  0  0  0
  5  7  1  0  0  0
 23 22  1  0  0  0
 22  7  1  0  0  0
 18 19  1  0  0  0
  7  9  1  0  0  0
M  CHG 1   7   1
M  END
> <minimizedAffinity>
-9.63878

> <CNNscore>
0.7493207455

> <CNNaffinity>
6.7567853928

> <CNN_VS>
5.0629992485

> <CNNaffinity_variance>
0.0185811818

$$$$



 30 33  0  0  0  0  0  0  0  0999 V2000
   10.4590    0.7267   59.0157 C   0  0  0  0  0  0  0  0  0  0  0  0
   12.9287    1.0985   59.5675 C   0  0  0  0  0  0  0  0  0  0  0  0
   12.1122    1.2841   57.2537 C   0  0  0  0  0  0  0  0  0  0  0  0
   14.0602    0.1841   59.1214 C   0  0  0  0  0  0  0  0  0  0  0  0
   13.2346    0.3799   56.7629 C   0  0  0  0  0  0  0  0  0  0  0  0
   11.7870    0.9938   58.6499 N   0  0  0  0  0  0  0  0  0  0  0  0
   14.4234    0.5160   57.6895 N   0  0  0  0  0  0  0  0  0  0  0  0
    9.5080    0.8169   58.2399 O   0  0  0  0  0  0  0  0  0  0  0  0
   14.7162    1.5027   57.6686 H   0  0  0  0  0  0  0  0  0  0  0  0
   10.2724    0.7952   62.7751 C   0  0  0  0  0  0  0  0  0  0  0  0
    9.7515   -0.4692   63.0730 C   0  0  0  0  0  0  0  0  0  0  0  0
   10.5006    1.1797   61.4553 C   0  0  0  0  0  0  0  0  0  0  0  0
    8.8666   -3.0366   60.6264 C   0  0  0  0  0  0  0  0  0  0  0  0
    8.9343   -2.6789   61.9531 C   0  0  0  0  0  0  0  0  0  0  0  0
    9.4574   -1.3571   62.0191 C   0  0  0  0  0  0  0  0  0  0  0  0
   10.2167    0.3159   60.3936 C   0  0  0  0  0  0  0  0  0  0  0  0
    9.6963   -0.9449   60.7064 C   0  0  0  0  0  0  0  0  0  0  0  0
    9.3286   -1.9845   59.8821 N   0  0  0  0  0  0  0  0  0  0  0  0
    9.3906   -1.9732   58.8734 H   0  0  0  0  0  0  0  0  0  0  0  0
    8.5396   -3.5158   63.0362 C   0  0  0  0  0  0  0  0  0  0  0  0
    8.2180   -4.1974   63.9186 N   0  0  0  0  0  0  0  0  0  0  0  0
   15.5987   -0.2894   57.2113 C   0  0  0  0  0  0  0  0  0  0  0  0
   16.5181   -0.6324   58.3791 C   0  0  0  0  0  0  0  0  0  0  0  0
   18.4173   -0.2210   56.7919 C   0  0  0  0  0  0  0  0  0  0  0  0
   18.8542   -1.4188   58.8440 C   0  0  0  0  0  0  0  0  0  0  0  0
   19.7607   -0.3406   56.4360 C   0  0  0  0  0  0  0  0  0  0  0  0
   20.1977   -1.5385   58.4881 C   0  0  0  0  0  0  0  0  0  0  0  0
   17.9641   -0.7600   57.9959 C   0  0  0  0  0  0  0  0  0  0  0  0
   20.6509   -0.9993   57.2842 C   0  0  0  0  0  0  0  0  0  0  0  0
   21.9404   -1.1166   56.9412 F   0  0  0  0  0  0  0  0  0  0  0  0
 20 14  1  0  0  0
 20 21  3  0  0  0
 10 11  2  0  0  0
 10 12  1  0  0  0
 11 15  1  0  0  0
 12 16  2  0  0  0
 24 26  2  0  0  0
 24 28  1  0  0  0
 25 27  1  0  0  0
 25 28  2  0  0  0
 26 29  1  0  0  0
 27 29  2  0  0  0
 13 14  2  0  0  0
 13 18  1  0  0  0
 14 15  1  0  0  0
 15 17  2  0  0  0
 16 17  1  0  0  0
 16  1  1  0  0  0
 28 23  1  0  0  0
 17 18  1  0  0  0
 29 30  1  0  0  0
  1  6  1  0  0  0
  1  8  2  0  0  0
  2  4  1  0  0  0
  2  6  1  0  0  0
  3  5  1  0  0  0
  3  6  1  0  0  0
  4  7  1  0  0  0
  5  7  1  0  0  0
 23 22  1  0  0  0
 22  7  1  0  0  0
 18 19  1  0  0  0
  7  9  1  0  0  0
M  CHG 1   7   1
M  END
> <minimizedAffinity>
-9.95045

> <CNNscore>
0.6048275232

> <CNNaffinity>
6.5738191605

> <CNN_VS>
3.9760267735

> <CNNaffinity_variance>
0.0349255390

$$$$



 30 33  0  0  0  0  0  0  0  0999 V2000
   10.3051    0.5029   59.3058 C   0  0  0  0  0  0  0  0  0  0  0  0
   12.3280   -0.0736   60.7611 C   0  0  0  0  0  0  0  0  0  0  0  0
   12.2507    2.0296   59.4860 C   0  0  0  0  0  0  0  0  0  0  0  0
   13.7192   -0.3769   60.2245 C   0  0  0  0  0  0  0  0  0  0  0  0
   13.6451    1.7697   58.9326 C   0  0  0  0  0  0  0  0  0  0  0  0
   11.5833    0.7713   59.8187 N   0  0  0  0  0  0  0  0  0  0  0  0
   14.4233    0.9288   59.9212 N   0  0  0  0  0  0  0  0  0  0  0  0
    9.6478    1.3157   58.6563 O   0  0  0  0  0  0  0  0  0  0  0  0
   14.4749    1.4605   60.8012 H   0  0  0  0  0  0  0  0  0  0  0  0
    9.0355   -2.9986   58.7582 C   0  0  0  0  0  0  0  0  0  0  0  0
    8.6650   -3.3892   60.0501 C   0  0  0  0  0  0  0  0  0  0  0  0
    9.5681   -1.7329   58.5209 C   0  0  0  0  0  0  0  0  0  0  0  0
    8.9559   -1.3355   63.0598 C   0  0  0  0  0  0  0  0  0  0  0  0
    8.5782   -2.5412   62.5155 C   0  0  0  0  0  0  0  0  0  0  0  0
    8.8365   -2.4850   61.1172 C   0  0  0  0  0  0  0  0  0  0  0  0
    9.7473   -0.8194   59.5636 C   0  0  0  0  0  0  0  0  0  0  0  0
    9.3726   -1.2235   60.8498 C   0  0  0  0  0  0  0  0  0  0  0  0
    9.4335   -0.5472   62.0474 N   0  0  0  0  0  0  0  0  0  0  0  0
    9.7804    0.3950   62.1631 H   0  0  0  0  0  0  0  0  0  0  0  0
    8.0300   -3.6261   63.2583 C   0  0  0  0  0  0  0  0  0  0  0  0
    7.5834   -4.5098   63.8634 N   0  0  0  0  0  0  0  0  0  0  0  0
   15.8401    0.7070   59.4715 C   0  0  0  0  0  0  0  0  0  0  0  0
   15.9164   -0.4874   58.5256 C   0  0  0  0  0  0  0  0  0  0  0  0
   14.9303   -0.3835   56.2208 C   0  0  0  0  0  0  0  0  0  0  0  0
   17.1426    0.5176   56.5819 C   0  0  0  0  0  0  0  0  0  0  0  0
   15.0070   -0.0321   54.8731 C   0  0  0  0  0  0  0  0  0  0  0  0
   17.2194    0.8691   55.2341 C   0  0  0  0  0  0  0  0  0  0  0  0
   15.9980   -0.1086   57.0751 C   0  0  0  0  0  0  0  0  0  0  0  0
   16.1516    0.5942   54.3798 C   0  0  0  0  0  0  0  0  0  0  0  0
   16.2265    0.9293   53.0850 F   0  0  0  0  0  0  0  0  0  0  0  0
 20 14  1  0  0  0
 20 21  3  0  0  0
 10 11  2  0  0  0
 10 12  1  0  0  0
 11 15  1  0  0  0
 12 16  2  0  0  0
 24 26  2  0  0  0
 24 28  1  0  0  0
 25 27  1  0  0  0
 25 28  2  0  0  0
 26 29  1  0  0  0
 27 29  2  0  0  0
 13 14  2  0  0  0
 13 18  1  0  0  0
 14 15  1  0  0  0
 15 17  2  0  0  0
 16 17  1  0  0  0
 16  1  1  0  0  0
 28 23  1  0  0  0
 17 18  1  0  0  0
 29 30  1  0  0  0
  1  6  1  0  0  0
  1  8  2  0  0  0
  2  4  1  0  0  0
  2  6  1  0  0  0
  3  5  1  0  0  0
  3  6  1  0  0  0
  4  7  1  0  0  0
  5  7  1  0  0  0
 23 22  1  0  0  0
 22  7  1  0  0  0
 18 19  1  0  0  0
  7  9  1  0  0  0
M  CHG 1   7   1
M  END
> <minimizedAffinity>
-8.97163

> <CNNscore>
0.5860061049

> <CNNaffinity>
6.7538084984

> <CNN_VS>
3.9577729702

> <CNNaffinity_variance>
0.0151685951

$$$$



 30 33  0  0  0  0  0  0  0  0999 V2000
   10.1276   -0.0528   60.8060 C   0  0  0  0  0  0  0  0  0  0  0  0
   12.2775    0.3730   62.1245 C   0  0  0  0  0  0  0  0  0  0  0  0
   12.0695    1.1008   59.7831 C   0  0  0  0  0  0  0  0  0  0  0  0
   13.6172   -0.2846   61.8272 C   0  0  0  0  0  0  0  0  0  0  0  0
   13.4105    0.4642   59.4442 C   0  0  0  0  0  0  0  0  0  0  0  0
   11.4445    0.4186   60.9159 N   0  0  0  0  0  0  0  0  0  0  0  0
   14.2810    0.4504   60.6820 N   0  0  0  0  0  0  0  0  0  0  0  0
    9.4082    0.1585   59.8301 O   0  0  0  0  0  0  0  0  0  0  0  0
   14.4075    1.4283   60.9780 H   0  0  0  0  0  0  0  0  0  0  0  0
    9.5299   -1.3314   64.2961 C   0  0  0  0  0  0  0  0  0  0  0  0
    8.6003   -2.3562   64.0853 C   0  0  0  0  0  0  0  0  0  0  0  0
   10.0234   -0.5853   63.2275 C   0  0  0  0  0  0  0  0  0  0  0  0
    7.2359   -3.3587   60.8459 C   0  0  0  0  0  0  0  0  0  0  0  0
    7.2572   -3.5675   62.2056 C   0  0  0  0  0  0  0  0  0  0  0  0
    8.1642   -2.6295   62.7736 C   0  0  0  0  0  0  0  0  0  0  0  0
    9.6055   -0.8384   61.9179 C   0  0  0  0  0  0  0  0  0  0  0  0
    8.6758   -1.8658   61.7222 C   0  0  0  0  0  0  0  0  0  0  0  0
    8.0948   -2.3306   60.5639 N   0  0  0  0  0  0  0  0  0  0  0  0
    8.2759   -1.9660   59.6388 H   0  0  0  0  0  0  0  0  0  0  0  0
    6.4903   -4.5590   62.8824 C   0  0  0  0  0  0  0  0  0  0  0  0
    5.8655   -5.3668   63.4335 N   0  0  0  0  0  0  0  0  0  0  0  0
   15.6532   -0.0901   60.3932 C   0  0  0  0  0  0  0  0  0  0  0  0
   15.6021   -1.0749   59.2293 C   0  0  0  0  0  0  0  0  0  0  0  0
   15.3355   -0.9067   56.7401 C   0  0  0  0  0  0  0  0  0  0  0  0
   16.9342    0.5331   57.8393 C   0  0  0  0  0  0  0  0  0  0  0  0
   15.6741   -0.3434   55.5097 C   0  0  0  0  0  0  0  0  0  0  0  0
   17.2729    1.0964   56.6089 C   0  0  0  0  0  0  0  0  0  0  0  0
   15.9655   -0.4684   57.9048 C   0  0  0  0  0  0  0  0  0  0  0  0
   16.6428    0.6581   55.4442 C   0  0  0  0  0  0  0  0  0  0  0  0
   16.9700    1.1972   54.2623 F   0  0  0  0  0  0  0  0  0  0  0  0
 20 14  1  0  0  0
 20 21  3  0  0  0
 10 11  2  0  0  0
 10 12  1  0  0  0
 11 15  1  0  0  0
 12 16  2  0  0  0
 24 26  2  0  0  0
 24 28  1  0  0  0
 25 27  1  0  0  0
 25 28  2  0  0  0
 26 29  1  0  0  0
 27 29  2  0  0  0
 13 14  2  0  0  0
 13 18  1  0  0  0
 14 15  1  0  0  0
 15 17  2  0  0  0
 16 17  1  0  0  0
 16  1  1  0  0  0
 28 23  1  0  0  0
 17 18  1  0  0  0
 29 30  1  0  0  0
  1  6  1  0  0  0
  1  8  2  0  0  0
  2  4  1  0  0  0
  2  6  1  0  0  0
  3  5  1  0  0  0
  3  6  1  0  0  0
  4  7  1  0  0  0
  5  7  1  0  0  0
 23 22  1  0  0  0
 22  7  1  0  0  0
 18 19  1  0  0  0
  7  9  1  0  0  0
M  CHG 1   7   1
M  END
> <minimizedAffinity>
-9.10123

> <CNNscore>
0.5800582170

> <CNNaffinity>
6.6573419571

> <CNN_VS>
3.8616459370

> <CNNaffinity_variance>
0.0600529239

$$$$



 30 33  0  0  0  0  0  0  0  0999 V2000
    9.6421    0.8052   59.7754 C   0  0  0  0  0  0  0  0  0  0  0  0
   11.9518    0.1936   60.6885 C   0  0  0  0  0  0  0  0  0  0  0  0
   11.5747    2.3422   59.5498 C   0  0  0  0  0  0  0  0  0  0  0  0
   13.1768   -0.0763   59.8272 C   0  0  0  0  0  0  0  0  0  0  0  0
   12.7989    2.1162   58.6731 C   0  0  0  0  0  0  0  0  0  0  0  0
   11.0052    1.0662   59.9819 N   0  0  0  0  0  0  0  0  0  0  0  0
   13.7890    1.2463   59.4168 N   0  0  0  0  0  0  0  0  0  0  0  0
    8.8497    1.6356   59.3313 O   0  0  0  0  0  0  0  0  0  0  0  0
   14.0470    1.7452   60.2796 H   0  0  0  0  0  0  0  0  0  0  0  0
    9.0635   -2.4146   61.6383 C   0  0  0  0  0  0  0  0  0  0  0  0
    8.2356   -3.1245   60.7611 C   0  0  0  0  0  0  0  0  0  0  0  0
    9.5181   -1.1379   61.3140 C   0  0  0  0  0  0  0  0  0  0  0  0
    7.0576   -1.9322   57.5128 C   0  0  0  0  0  0  0  0  0  0  0  0
    7.0594   -2.9492   58.4393 C   0  0  0  0  0  0  0  0  0  0  0  0
    7.8626   -2.5329   59.5378 C   0  0  0  0  0  0  0  0  0  0  0  0
    9.1614   -0.5310   60.1064 C   0  0  0  0  0  0  0  0  0  0  0  0
    8.3331   -1.2523   59.2393 C   0  0  0  0  0  0  0  0  0  0  0  0
    7.8288   -0.9132   58.0040 N   0  0  0  0  0  0  0  0  0  0  0  0
    8.0024   -0.0387   57.5280 H   0  0  0  0  0  0  0  0  0  0  0  0
    6.3656   -4.1837   58.2846 C   0  0  0  0  0  0  0  0  0  0  0  0
    5.8005   -5.1894   58.1586 N   0  0  0  0  0  0  0  0  0  0  0  0
   15.0594    1.0547   58.6371 C   0  0  0  0  0  0  0  0  0  0  0  0
   15.0683   -0.3142   57.9641 C   0  0  0  0  0  0  0  0  0  0  0  0
   15.4332    0.2343   55.5429 C   0  0  0  0  0  0  0  0  0  0  0  0
   13.3491   -0.7949   56.2019 C   0  0  0  0  0  0  0  0  0  0  0  0
   15.0031    0.2560   54.2162 C   0  0  0  0  0  0  0  0  0  0  0  0
   12.9188   -0.7731   54.8751 C   0  0  0  0  0  0  0  0  0  0  0  0
   14.6062   -0.2913   56.5357 C   0  0  0  0  0  0  0  0  0  0  0  0
   13.7459   -0.2477   53.8824 C   0  0  0  0  0  0  0  0  0  0  0  0
   13.3316   -0.2244   52.6087 F   0  0  0  0  0  0  0  0  0  0  0  0
 20 14  1  0  0  0
 20 21  3  0  0  0
 10 11  2  0  0  0
 10 12  1  0  0  0
 11 15  1  0  0  0
 12 16  2  0  0  0
 24 26  2  0  0  0
 24 28  1  0  0  0
 25 27  1  0  0  0
 25 28  2  0  0  0
 26 29  1  0  0  0
 27 29  2  0  0  0
 13 14  2  0  0  0
 13 18  1  0  0  0
 14 15  1  0  0  0
 15 17  2  0  0  0
 16 17  1  0  0  0
 16  1  1  0  0  0
 28 23  1  0  0  0
 17 18  1  0  0  0
 29 30  1  0  0  0
  1  6  1  0  0  0
  1  8  2  0  0  0
  2  4  1  0  0  0
  2  6  1  0  0  0
  3  5  1  0  0  0
  3  6  1  0  0  0
  4  7  1  0  0  0
  5  7  1  0  0  0
 23 22  1  0  0  0
 22  7  1  0  0  0
 18 19  1  0  0  0
  7  9  1  0  0  0
M  CHG 1   7   1
M  END
> <minimizedAffinity>
-9.00633

> <CNNscore>
0.5294708014

> <CNNaffinity>
6.4593977928

> <CNN_VS>
3.4200625420

> <CNNaffinity_variance>
0.1214717031

$$$$



 30 33  0  0  0  0  0  0  0  0999 V2000
    9.8480    0.7640   60.4588 C   0  0  0  0  0  0  0  0  0  0  0  0
   12.3064    0.6566   61.1566 C   0  0  0  0  0  0  0  0  0  0  0  0
   11.5600    2.2152   59.4048 C   0  0  0  0  0  0  0  0  0  0  0  0
   13.4354    0.1578   60.2667 C   0  0  0  0  0  0  0  0  0  0  0  0
   12.6815    1.7516   58.4853 C   0  0  0  0  0  0  0  0  0  0  0  0
   11.1901    1.1567   60.3439 N   0  0  0  0  0  0  0  0  0  0  0  0
   13.8450    1.2699   59.3244 N   0  0  0  0  0  0  0  0  0  0  0  0
    8.9213    1.3294   59.8791 O   0  0  0  0  0  0  0  0  0  0  0  0
   14.1542    2.0633   59.9031 H   0  0  0  0  0  0  0  0  0  0  0  0
    9.0367   -2.7422   61.5640 C   0  0  0  0  0  0  0  0  0  0  0  0
    8.9973   -2.6163   62.9574 C   0  0  0  0  0  0  0  0  0  0  0  0
    9.3136   -1.6411   60.7559 C   0  0  0  0  0  0  0  0  0  0  0  0
    9.5756    0.4674   64.8326 C   0  0  0  0  0  0  0  0  0  0  0  0
    9.2822   -0.8759   64.8794 C   0  0  0  0  0  0  0  0  0  0  0  0
    9.2420   -1.3573   63.5409 C   0  0  0  0  0  0  0  0  0  0  0  0
    9.5594   -0.3826   61.3122 C   0  0  0  0  0  0  0  0  0  0  0  0
    9.5168   -0.2716   62.7065 C   0  0  0  0  0  0  0  0  0  0  0  0
    9.7150    0.8228   63.5179 N   0  0  0  0  0  0  0  0  0  0  0  0
    9.9321    1.7542   63.1908 H   0  0  0  0  0  0  0  0  0  0  0  0
    9.0649   -1.6136   66.0785 C   0  0  0  0  0  0  0  0  0  0  0  0
    8.8878   -2.2144   67.0554 N   0  0  0  0  0  0  0  0  0  0  0  0
   15.0206    0.8762   58.4748 C   0  0  0  0  0  0  0  0  0  0  0  0
   14.7942   -0.5014   57.8602 C   0  0  0  0  0  0  0  0  0  0  0  0
   15.1454    0.2493   55.4920 C   0  0  0  0  0  0  0  0  0  0  0  0
   13.2328   -1.1359   56.0024 C   0  0  0  0  0  0  0  0  0  0  0  0
   14.7609    0.2864   54.1516 C   0  0  0  0  0  0  0  0  0  0  0  0
   12.8483   -1.0988   54.6620 C   0  0  0  0  0  0  0  0  0  0  0  0
   14.3814   -0.4619   56.4173 C   0  0  0  0  0  0  0  0  0  0  0  0
   13.6124   -0.3877   53.7367 C   0  0  0  0  0  0  0  0  0  0  0  0
   13.2416   -0.3499   52.4500 F   0  0  0  0  0  0  0  0  0  0  0  0
 20 14  1  0  0  0
 20 21  3  0  0  0
 10 11  2  0  0  0
 10 12  1  0  0  0
 11 15  1  0  0  0
 12 16  2  0  0  0
 24 26  2  0  0  0
 24 28  1  0  0  0
 25 27  1  0  0  0
 25 28  2  0  0  0
 26 29  1  0  0  0
 27 29  2  0  0  0
 13 14  2  0  0  0
 13 18  1  0  0  0
 14 15  1  0  0  0
 15 17  2  0  0  0
 16 17  1  0  0  0
 16  1  1  0  0  0
 28 23  1  0  0  0
 17 18  1  0  0  0
 29 30  1  0  0  0
  1  6  1  0  0  0
  1  8  2  0  0  0
  2  4  1  0  0  0
  2  6  1  0  0  0
  3  5  1  0  0  0
  3  6  1  0  0  0
  4  7  1  0  0  0
  5  7  1  0  0  0
 23 22  1  0  0  0
 22  7  1  0  0  0
 18 19  1  0  0  0
  7  9  1  0  0  0
M  CHG 1   7   1
M  END
> <minimizedAffinity>
-9.04175

> <CNNscore>
0.4627009630

> <CNNaffinity>
6.5961503983

> <CNN_VS>
3.0520451069

> <CNNaffinity_variance>
0.0181145649

$$$$



 22 24  0  0  0  0  0  0  0  0999 V2000
   13.8511   -1.8446   54.9385 C   0  0  0  0  0  0  0  0  0  0  0  0
   14.9721   -1.4763   54.1947 C   0  0  0  0  0  0  0  0  0  0  0  0
   13.6357   -1.2859   56.1985 C   0  0  0  0  0  0  0  0  0  0  0  0
   15.8779   -0.5495   54.7107 C   0  0  0  0  0  0  0  0  0  0  0  0
   14.5415   -0.3591   56.7145 C   0  0  0  0  0  0  0  0  0  0  0  0
   15.6625    0.0092   55.9706 C   0  0  0  0  0  0  0  0  0  0  0  0
   12.7556    0.3315   58.3803 C   0  0  0  0  0  0  0  0  0  0  0  0
   14.9822   -0.5566   59.2063 C   0  0  0  0  0  0  0  0  0  0  0  0
   12.4976    0.9212   59.7595 C   0  0  0  0  0  0  0  0  0  0  0  0
   14.6958    0.0445   60.5750 C   0  0  0  0  0  0  0  0  0  0  0  0
   14.2634    0.2180   58.0855 C   0  0  0  0  0  0  0  0  0  0  0  0
   13.2191    0.1102   60.7844 N   0  0  0  0  0  0  0  0  0  0  0  0
   13.0302    0.5036   61.7166 H   0  0  0  0  0  0  0  0  0  0  0  0
   12.8319   -0.8438   60.8026 H   0  0  0  0  0  0  0  0  0  0  0  0
   16.8528    1.1925   56.5880 S   0  0  0  0  0  0  0  0  0  0  0  0
   19.3015   -1.4331   58.4877 C   0  0  0  0  0  0  0  0  0  0  0  0
   20.3711   -0.8291   56.4073 C   0  0  0  0  0  0  0  0  0  0  0  0
   18.2283   -0.5973   58.1786 C   0  0  0  0  0  0  0  0  0  0  0  0
   19.2980    0.0066   56.0982 C   0  0  0  0  0  0  0  0  0  0  0  0
   20.3729   -1.5490   57.6020 C   0  0  0  0  0  0  0  0  0  0  0  0
   18.2266    0.1225   56.9839 C   0  0  0  0  0  0  0  0  0  0  0  0
   21.5210   -2.4413   57.9340 C   0  0  0  0  0  0  0  0  0  0  0  0
  1  2  1  0  0  0
  1  3  2  0  0  0
  2  4  2  0  0  0
  3  5  1  0  0  0
 16 18  2  0  0  0
 16 20  1  0  0  0
 17 19  1  0  0  0
 17 20  2  0  0  0
  4  6  1  0  0  0
 18 21  1  0  0  0
 19 21  2  0  0  0
  5  6  2  0  0  0
  5 11  1  0  0  0
 20 22  1  0  0  0
 21 15  1  0  0  0
  6 15  1  0  0  0
  7  9  1  0  0  0
  7 11  1  0  0  0
  8 10  1  0  0  0
  8 11  1  0  0  0
  9 12  1  0  0  0
 10 12  1  0  0  0
 12 13  1  0  0  0
 12 14  1  0  0  0
M  CHG 1  12   1
M  END
> <minimizedAffinity>
-8.74240

> <CNNscore>
0.7835949659

> <CNNaffinity>
6.5964326859

> <CNN_VS>
5.1689314842

> <CNNaffinity_variance>
0.0701857880

$$$$



 22 24  0  0  0  0  0  0  0  0999 V2000
   14.5489    0.4859   53.5680 C   0  0  0  0  0  0  0  0  0  0  0  0
   15.8883    0.6908   53.8988 C   0  0  0  0  0  0  0  0  0  0  0  0
   13.6095    0.2556   54.5732 C   0  0  0  0  0  0  0  0  0  0  0  0
   16.2885    0.6653   55.2347 C   0  0  0  0  0  0  0  0  0  0  0  0
   14.0097    0.2302   55.9091 C   0  0  0  0  0  0  0  0  0  0  0  0
   15.3492    0.4351   56.2400 C   0  0  0  0  0  0  0  0  0  0  0  0
   12.5106    1.2693   57.6738 C   0  0  0  0  0  0  0  0  0  0  0  0
   11.7351   -0.7826   56.4023 C   0  0  0  0  0  0  0  0  0  0  0  0
   11.4543    0.9916   58.7339 C   0  0  0  0  0  0  0  0  0  0  0  0
   10.6888   -1.0341   57.4786 C   0  0  0  0  0  0  0  0  0  0  0  0
   12.9530   -0.0234   56.9623 C   0  0  0  0  0  0  0  0  0  0  0  0
   10.3096    0.2648   58.1095 N   0  0  0  0  0  0  0  0  0  0  0  0
    9.5915    0.0919   58.8263 H   0  0  0  0  0  0  0  0  0  0  0  0
    9.8604    0.8694   57.4075 H   0  0  0  0  0  0  0  0  0  0  0  0
   15.9122    0.4118   57.9372 S   0  0  0  0  0  0  0  0  0  0  0  0
   19.4501   -1.4921   58.5349 C   0  0  0  0  0  0  0  0  0  0  0  0
   19.6370   -0.2618   56.4641 C   0  0  0  0  0  0  0  0  0  0  0  0
   18.1439   -1.0286   58.6925 C   0  0  0  0  0  0  0  0  0  0  0  0
   18.3309    0.2017   56.6216 C   0  0  0  0  0  0  0  0  0  0  0  0
   20.1967   -1.1087   57.4208 C   0  0  0  0  0  0  0  0  0  0  0  0
   17.5844   -0.1817   57.7357 C   0  0  0  0  0  0  0  0  0  0  0  0
   21.5939   -1.6030   57.2539 C   0  0  0  0  0  0  0  0  0  0  0  0
  1  2  1  0  0  0
  1  3  2  0  0  0
  2  4  2  0  0  0
  3  5  1  0  0  0
 16 18  2  0  0  0
 16 20  1  0  0  0
 17 19  1  0  0  0
 17 20  2  0  0  0
  4  6  1  0  0  0
 18 21  1  0  0  0
 19 21  2  0  0  0
  5  6  2  0  0  0
  5 11  1  0  0  0
 20 22  1  0  0  0
 21 15  1  0  0  0
  6 15  1  0  0  0
  7  9  1  0  0  0
  7 11  1  0  0  0
  8 10  1  0  0  0
  8 11  1  0  0  0
  9 12  1  0  0  0
 10 12  1  0  0  0
 12 13  1  0  0  0
 12 14  1  0  0  0
M  CHG 1  12   1
M  END
> <minimizedAffinity>
-9.14757

> <CNNscore>
0.7142239809

> <CNNaffinity>
6.2446575165

> <CNN_VS>
4.4600839615

> <CNNaffinity_variance>
0.1962026507

$$$$



 22 24  0  0  0  0  0  0  0  0999 V2000
   13.0345   -1.3404   55.5634 C   0  0  0  0  0  0  0  0  0  0  0  0
   14.4168   -1.5192   55.5129 C   0  0  0  0  0  0  0  0  0  0  0  0
   12.4656   -0.5873   56.5907 C   0  0  0  0  0  0  0  0  0  0  0  0
   15.2305   -0.9452   56.4897 C   0  0  0  0  0  0  0  0  0  0  0  0
   13.2793   -0.0134   57.5675 C   0  0  0  0  0  0  0  0  0  0  0  0
   14.6618   -0.1922   57.5170 C   0  0  0  0  0  0  0  0  0  0  0  0
   11.5538    1.7667   58.1106 C   0  0  0  0  0  0  0  0  0  0  0  0
   12.0176   -0.0948   59.7684 C   0  0  0  0  0  0  0  0  0  0  0  0
   10.9032    2.5746   59.2245 C   0  0  0  0  0  0  0  0  0  0  0  0
   11.3612    0.7369   60.8612 C   0  0  0  0  0  0  0  0  0  0  0  0
   12.6143    0.7943   58.6609 C   0  0  0  0  0  0  0  0  0  0  0  0
   10.3446    1.6416   60.2473 N   0  0  0  0  0  0  0  0  0  0  0  0
    9.8931    2.1915   60.9911 H   0  0  0  0  0  0  0  0  0  0  0  0
    9.5937    1.0780   59.8247 H   0  0  0  0  0  0  0  0  0  0  0  0
   15.7474    0.5226   58.7453 S   0  0  0  0  0  0  0  0  0  0  0  0
   19.0990   -0.0916   56.5344 C   0  0  0  0  0  0  0  0  0  0  0  0
   19.2956   -1.4423   58.5279 C   0  0  0  0  0  0  0  0  0  0  0  0
   17.8581    0.3723   56.9710 C   0  0  0  0  0  0  0  0  0  0  0  0
   18.0547   -0.9785   58.9645 C   0  0  0  0  0  0  0  0  0  0  0  0
   19.8177   -0.9990   57.3128 C   0  0  0  0  0  0  0  0  0  0  0  0
   17.3360   -0.0711   58.1861 C   0  0  0  0  0  0  0  0  0  0  0  0
   21.1436   -1.4961   56.8445 C   0  0  0  0  0  0  0  0  0  0  0  0
  1  2  1  0  0  0
  1  3  2  0  0  0
  2  4  2  0  0  0
  3  5  1  0  0  0
 16 18  2  0  0  0
 16 20  1  0  0  0
 17 19  1  0  0  0
 17 20  2  0  0  0
  4  6  1  0  0  0
 18 21  1  0  0  0
 19 21  2  0  0  0
  5  6  2  0  0  0
  5 11  1  0  0  0
 20 22  1  0  0  0
 21 15  1  0  0  0
  6 15  1  0  0  0
  7  9  1  0  0  0
  7 11  1  0  0  0
  8 10  1  0  0  0
  8 11  1  0  0  0
  9 12  1  0  0  0
 10 12  1  0  0  0
 12 13  1  0  0  0
 12 14  1  0  0  0
M  CHG 1  12   1
M  END
> <minimizedAffinity>
-8.95158

> <CNNscore>
0.5983046889

> <CNNaffinity>
6.0739459991

> <CNN_VS>
3.6340703964

> <CNNaffinity_variance>
0.1905771196

$$$$



 22 24  0  0  0  0  0  0  0  0999 V2000
    7.9199   -1.3302   58.9136 C   0  0  0  0  0  0  0  0  0  0  0  0
    7.2175   -2.4932   59.2289 C   0  0  0  0  0  0  0  0  0  0  0  0
    8.9323   -0.8759   59.7590 C   0  0  0  0  0  0  0  0  0  0  0  0
    7.5271   -3.2020   60.3897 C   0  0  0  0  0  0  0  0  0  0  0  0
    9.2419   -1.5847   60.9197 C   0  0  0  0  0  0  0  0  0  0  0  0
    8.5395   -2.7478   61.2351 C   0  0  0  0  0  0  0  0  0  0  0  0
   11.6769   -0.8797   61.0434 C   0  0  0  0  0  0  0  0  0  0  0  0
    9.9531    0.2574   62.5146 C   0  0  0  0  0  0  0  0  0  0  0  0
   12.7775   -0.3502   61.9516 C   0  0  0  0  0  0  0  0  0  0  0  0
   11.0757    0.7723   63.4040 C   0  0  0  0  0  0  0  0  0  0  0  0
   10.3481   -1.0510   61.8038 C   0  0  0  0  0  0  0  0  0  0  0  0
   12.3197    0.9185   62.5915 N   0  0  0  0  0  0  0  0  0  0  0  0
   13.0721    1.2806   63.1932 H   0  0  0  0  0  0  0  0  0  0  0  0
   12.1746    1.6358   61.8672 H   0  0  0  0  0  0  0  0  0  0  0  0
    8.8984   -3.6915   62.7112 S   0  0  0  0  0  0  0  0  0  0  0  0
    9.0470   -1.3345   66.0158 C   0  0  0  0  0  0  0  0  0  0  0  0
    6.9273   -0.9207   64.9328 C   0  0  0  0  0  0  0  0  0  0  0  0
    9.3748   -2.2568   65.0220 C   0  0  0  0  0  0  0  0  0  0  0  0
    7.2551   -1.8430   63.9390 C   0  0  0  0  0  0  0  0  0  0  0  0
    7.8232   -0.6665   65.9713 C   0  0  0  0  0  0  0  0  0  0  0  0
    8.4789   -2.5109   63.9836 C   0  0  0  0  0  0  0  0  0  0  0  0
    7.4724    0.3180   67.0353 C   0  0  0  0  0  0  0  0  0  0  0  0
  1  2  1  0  0  0
  1  3  2  0  0  0
  2  4  2  0  0  0
  3  5  1  0  0  0
 16 18  2  0  0  0
 16 20  1  0  0  0
 17 19  1  0  0  0
 17 20  2  0  0  0
  4  6  1  0  0  0
 18 21  1  0  0  0
 19 21  2  0  0  0
  5  6  2  0  0  0
  5 11  1  0  0  0
 20 22  1  0  0  0
 21 15  1  0  0  0
  6 15  1  0  0  0
  7  9  1  0  0  0
  7 11  1  0  0  0
  8 10  1  0  0  0
  8 11  1  0  0  0
  9 12  1  0  0  0
 10 12  1  0  0  0
 12 13  1  0  0  0
 12 14  1  0  0  0
M  CHG 1  12   1
M  END
> <minimizedAffinity>
-7.71242

> <CNNscore>
0.4479505420

> <CNNaffinity>
5.7052106857

> <CNN_VS>
2.5556521416

> <CNNaffinity_variance>
0.1896875203

$$$$



 22 24  0  0  0  0  0  0  0  0999 V2000
    8.2236   -0.9035   58.5014 C   0  0  0  0  0  0  0  0  0  0  0  0
    7.4464   -2.0552   58.6228 C   0  0  0  0  0  0  0  0  0  0  0  0
    9.1601   -0.5870   59.4856 C   0  0  0  0  0  0  0  0  0  0  0  0
    7.6054   -2.8906   59.7285 C   0  0  0  0  0  0  0  0  0  0  0  0
    9.3191   -1.4223   60.5913 C   0  0  0  0  0  0  0  0  0  0  0  0
    8.5419   -2.5741   60.7128 C   0  0  0  0  0  0  0  0  0  0  0  0
   11.6804   -0.5870   61.0014 C   0  0  0  0  0  0  0  0  0  0  0  0
    9.8215    0.0302   62.6114 C   0  0  0  0  0  0  0  0  0  0  0  0
   12.7034   -0.2104   62.0636 C   0  0  0  0  0  0  0  0  0  0  0  0
   10.8681    0.3989   63.6531 C   0  0  0  0  0  0  0  0  0  0  0  0
   10.3480   -1.0354   61.6314 C   0  0  0  0  0  0  0  0  0  0  0  0
   12.1197    0.8291   62.9622 N   0  0  0  0  0  0  0  0  0  0  0  0
   12.8197    1.0913   63.6699 H   0  0  0  0  0  0  0  0  0  0  0  0
   11.9368    1.6866   62.4224 H   0  0  0  0  0  0  0  0  0  0  0  0
    8.7077   -3.6768   62.1110 S   0  0  0  0  0  0  0  0  0  0  0  0
    5.6911   -2.2512   64.4273 C   0  0  0  0  0  0  0  0  0  0  0  0
    4.8401   -4.1789   63.2454 C   0  0  0  0  0  0  0  0  0  0  0  0
    6.9292   -2.4172   63.8068 C   0  0  0  0  0  0  0  0  0  0  0  0
    6.0782   -4.3449   62.6249 C   0  0  0  0  0  0  0  0  0  0  0  0
    4.6465   -3.1320   64.1467 C   0  0  0  0  0  0  0  0  0  0  0  0
    7.1227   -3.4640   62.9055 C   0  0  0  0  0  0  0  0  0  0  0  0
    3.3234   -2.9551   64.8120 C   0  0  0  0  0  0  0  0  0  0  0  0
  1  2  1  0  0  0
  1  3  2  0  0  0
  2  4  2  0  0  0
  3  5  1  0  0  0
 16 18  2  0  0  0
 16 20  1  0  0  0
 17 19  1  0  0  0
 17 20  2  0  0  0
  4  6  1  0  0  0
 18 21  1  0  0  0
 19 21  2  0  0  0
  5  6  2  0  0  0
  5 11  1  0  0  0
 20 22  1  0  0  0
 21 15  1  0  0  0
  6 15  1  0  0  0
  7  9  1  0  0  0
  7 11  1  0  0  0
  8 10  1  0  0  0
  8 11  1  0  0  0
  9 12  1  0  0  0
 10 12  1  0  0  0
 12 13  1  0  0  0
 12 14  1  0  0  0
M  CHG 1  12   1
M  END
> <minimizedAffinity>
-8.13381

> <CNNscore>
0.3808391988

> <CNNaffinity>
5.4247107506

> <CNN_VS>
2.0659425259

> <CNNaffinity_variance>
0.1549077332

$$$$



 22 24  0  0  0  0  0  0  0  0999 V2000
   14.0272    0.9129   59.4578 C   0  0  0  0  0  0  0  0  0  0  0  0
   15.3162    1.4457   59.4642 C   0  0  0  0  0  0  0  0  0  0  0  0
   13.5340    0.2940   58.3090 C   0  0  0  0  0  0  0  0  0  0  0  0
   16.1121    1.3598   58.3220 C   0  0  0  0  0  0  0  0  0  0  0  0
   14.3299    0.2081   57.1668 C   0  0  0  0  0  0  0  0  0  0  0  0
   15.6190    0.7409   57.1732 C   0  0  0  0  0  0  0  0  0  0  0  0
   13.9361    0.3606   54.6642 C   0  0  0  0  0  0  0  0  0  0  0  0
   14.2954   -1.9003   55.7540 C   0  0  0  0  0  0  0  0  0  0  0  0
   13.3386   -0.3374   53.4507 C   0  0  0  0  0  0  0  0  0  0  0  0
   13.6933   -2.5695   54.5267 C   0  0  0  0  0  0  0  0  0  0  0  0
   13.7494   -0.4728   55.9464 C   0  0  0  0  0  0  0  0  0  0  0  0
   13.9249   -1.7051   53.3316 N   0  0  0  0  0  0  0  0  0  0  0  0
   13.5291   -2.1680   52.5018 H   0  0  0  0  0  0  0  0  0  0  0  0
   14.9360   -1.6311   53.1518 H   0  0  0  0  0  0  0  0  0  0  0  0
   16.6781    0.6565   55.7347 S   0  0  0  0  0  0  0  0  0  0  0  0
   19.2131   -1.2819   58.2476 C   0  0  0  0  0  0  0  0  0  0  0  0
   20.4088   -0.8851   56.1861 C   0  0  0  0  0  0  0  0  0  0  0  0
   18.0863   -0.6560   57.7146 C   0  0  0  0  0  0  0  0  0  0  0  0
   19.2819   -0.2592   55.6530 C   0  0  0  0  0  0  0  0  0  0  0  0
   20.3744   -1.3963   57.4834 C   0  0  0  0  0  0  0  0  0  0  0  0
   18.1207   -0.1448   56.4173 C   0  0  0  0  0  0  0  0  0  0  0  0
   21.5797   -2.0639   58.0546 C   0  0  0  0  0  0  0  0  0  0  0  0
  1  2  1  0  0  0
  1  3  2  0  0  0
  2  4  2  0  0  0
  3  5  1  0  0  0
 16 18  2  0  0  0
 16 20  1  0  0  0
 17 19  1  0  0  0
 17 20  2  0  0  0
  4  6  1  0  0  0
 18 21  1  0  0  0
 19 21  2  0  0  0
  5  6  2  0  0  0
  5 11  1  0  0  0
 20 22  1  0  0  0
 21 15  1  0  0  0
  6 15  1  0  0  0
  7  9  1  0  0  0
  7 11  1  0  0  0
  8 10  1  0  0  0
  8 11  1  0  0  0
  9 12  1  0  0  0
 10 12  1  0  0  0
 12 13  1  0  0  0
 12 14  1  0  0  0
M  CHG 1  12   1
M  END
> <minimizedAffinity>
-8.32018

> <CNNscore>
0.3729749918

> <CNNaffinity>
6.0472235680

> <CNN_VS>
2.2554631233

> <CNNaffinity_variance>
0.0746605247

$$$$



 22 24  0  0  0  0  0  0  0  0999 V2000
    9.7682    2.5072   59.1742 C   0  0  0  0  0  0  0  0  0  0  0  0
    8.9317    2.4785   60.2899 C   0  0  0  0  0  0  0  0  0  0  0  0
   10.9085    1.7045   59.1365 C   0  0  0  0  0  0  0  0  0  0  0  0
    9.2354    1.6472   61.3681 C   0  0  0  0  0  0  0  0  0  0  0  0
   11.2122    0.8733   60.2147 C   0  0  0  0  0  0  0  0  0  0  0  0
   10.3756    0.8445   61.3305 C   0  0  0  0  0  0  0  0  0  0  0  0
   13.4404    0.5273   59.0500 C   0  0  0  0  0  0  0  0  0  0  0  0
   13.1696   -0.1254   61.4850 C   0  0  0  0  0  0  0  0  0  0  0  0
   14.6841   -0.3466   58.9709 C   0  0  0  0  0  0  0  0  0  0  0  0
   14.4167   -0.9910   61.3748 C   0  0  0  0  0  0  0  0  0  0  0  0
   12.4601    0.0220   60.1256 C   0  0  0  0  0  0  0  0  0  0  0  0
   15.3139   -0.4296   60.3218 N   0  0  0  0  0  0  0  0  0  0  0  0
   16.1622   -1.0093   60.2608 H   0  0  0  0  0  0  0  0  0  0  0  0
   15.6370    0.5051   60.6084 H   0  0  0  0  0  0  0  0  0  0  0  0
   10.7214   -0.2035   62.7377 S   0  0  0  0  0  0  0  0  0  0  0  0
    8.2428   -3.0846   61.3048 C   0  0  0  0  0  0  0  0  0  0  0  0
    7.5218   -2.5692   63.5524 C   0  0  0  0  0  0  0  0  0  0  0  0
    9.2639   -2.1410   61.4159 C   0  0  0  0  0  0  0  0  0  0  0  0
    8.5430   -1.6256   63.6635 C   0  0  0  0  0  0  0  0  0  0  0  0
    7.3716   -3.2987   62.3730 C   0  0  0  0  0  0  0  0  0  0  0  0
    9.4141   -1.4116   62.5953 C   0  0  0  0  0  0  0  0  0  0  0  0
    6.2787   -4.3064   62.2529 C   0  0  0  0  0  0  0  0  0  0  0  0
  1  2  1  0  0  0
  1  3  2  0  0  0
  2  4  2  0  0  0
  3  5  1  0  0  0
 16 18  2  0  0  0
 16 20  1  0  0  0
 17 19  1  0  0  0
 17 20  2  0  0  0
  4  6  1  0  0  0
 18 21  1  0  0  0
 19 21  2  0  0  0
  5  6  2  0  0  0
  5 11  1  0  0  0
 20 22  1  0  0  0
 21 15  1  0  0  0
  6 15  1  0  0  0
  7  9  1  0  0  0
  7 11  1  0  0  0
  8 10  1  0  0  0
  8 11  1  0  0  0
  9 12  1  0  0  0
 10 12  1  0  0  0
 12 13  1  0  0  0
 12 14  1  0  0  0
M  CHG 1  12   1
M  END
> <minimizedAffinity>
-7.80976

> <CNNscore>
0.3158186078

> <CNNaffinity>
5.7648887634

> <CNN_VS>
1.8206591606

> <CNNaffinity_variance>
0.0733477324

$$$$



 22 24  0  0  0  0  0  0  0  0999 V2000
   14.1648   -1.9104   55.0983 C   0  0  0  0  0  0  0  0  0  0  0  0
   12.8148   -1.8069   54.7634 C   0  0  0  0  0  0  0  0  0  0  0  0
   14.6669   -1.2105   56.1956 C   0  0  0  0  0  0  0  0  0  0  0  0
   11.9667   -1.0035   55.5256 C   0  0  0  0  0  0  0  0  0  0  0  0
   13.8188   -0.4071   56.9578 C   0  0  0  0  0  0  0  0  0  0  0  0
   12.4687   -0.3036   56.6229 C   0  0  0  0  0  0  0  0  0  0  0  0
   14.5142   -0.5540   59.3942 C   0  0  0  0  0  0  0  0  0  0  0  0
   15.7735    0.9710   57.8077 C   0  0  0  0  0  0  0  0  0  0  0  0
   15.1046    0.2096   60.5710 C   0  0  0  0  0  0  0  0  0  0  0  0
   16.3478    1.7152   59.0047 C   0  0  0  0  0  0  0  0  0  0  0  0
   14.4114    0.3318   58.1380 C   0  0  0  0  0  0  0  0  0  0  0  0
   16.4221    0.7871   60.1718 N   0  0  0  0  0  0  0  0  0  0  0  0
   16.8244    1.2901   60.9746 H   0  0  0  0  0  0  0  0  0  0  0  0
   17.0823    0.0250   59.9632 H   0  0  0  0  0  0  0  0  0  0  0  0
   11.3411    0.7131   57.5679 S   0  0  0  0  0  0  0  0  0  0  0  0
    9.1649   -2.4255   58.9504 C   0  0  0  0  0  0  0  0  0  0  0  0
   10.2898   -1.4399   60.8477 C   0  0  0  0  0  0  0  0  0  0  0  0
    9.7453   -1.4738   58.1118 C   0  0  0  0  0  0  0  0  0  0  0  0
   10.8702   -0.4882   60.0092 C   0  0  0  0  0  0  0  0  0  0  0  0
    9.4371   -2.4085   60.3184 C   0  0  0  0  0  0  0  0  0  0  0  0
   10.5980   -0.5053   58.6413 C   0  0  0  0  0  0  0  0  0  0  0  0
    8.8147   -3.4251   61.2148 C   0  0  0  0  0  0  0  0  0  0  0  0
  1  2  1  0  0  0
  1  3  2  0  0  0
  2  4  2  0  0  0
  3  5  1  0  0  0
 16 18  2  0  0  0
 16 20  1  0  0  0
 17 19  1  0  0  0
 17 20  2  0  0  0
  4  6  1  0  0  0
 18 21  1  0  0  0
 19 21  2  0  0  0
  5  6  2  0  0  0
  5 11  1  0  0  0
 20 22  1  0  0  0
 21 15  1  0  0  0
  6 15  1  0  0  0
  7  9  1  0  0  0
  7 11  1  0  0  0
  8 10  1  0  0  0
  8 11  1  0  0  0
  9 12  1  0  0  0
 10 12  1  0  0  0
 12 13  1  0  0  0
 12 14  1  0  0  0
M  CHG 1  12   1
M  END
> <minimizedAffinity>
-8.07154

> <CNNscore>
0.2797032595

> <CNNaffinity>
5.6423521042

> <CNN_VS>
1.5781842470

> <CNNaffinity_variance>
0.1089093536

$$$$



 22 24  0  0  0  0  0  0  0  0999 V2000
    9.9733    2.2627   58.9194 C   0  0  0  0  0  0  0  0  0  0  0  0
   11.0781    2.0723   58.0896 C   0  0  0  0  0  0  0  0  0  0  0  0
    9.9634    1.7179   60.2036 C   0  0  0  0  0  0  0  0  0  0  0  0
   12.1730    1.3370   58.5437 C   0  0  0  0  0  0  0  0  0  0  0  0
   11.0583    0.9827   60.6577 C   0  0  0  0  0  0  0  0  0  0  0  0
   12.1632    0.7923   59.8278 C   0  0  0  0  0  0  0  0  0  0  0  0
   11.1809    1.4932   63.1407 C   0  0  0  0  0  0  0  0  0  0  0  0
    9.7146   -0.4003   62.3083 C   0  0  0  0  0  0  0  0  0  0  0  0
   11.1264    0.8983   64.5406 C   0  0  0  0  0  0  0  0  0  0  0  0
    9.6789   -0.9711   63.7187 C   0  0  0  0  0  0  0  0  0  0  0  0
   10.9991    0.4124   62.0581 C   0  0  0  0  0  0  0  0  0  0  0  0
    9.8520    0.1380   64.7030 N   0  0  0  0  0  0  0  0  0  0  0  0
    9.8126   -0.2502   65.6554 H   0  0  0  0  0  0  0  0  0  0  0  0
    9.0544    0.7856   64.6345 H   0  0  0  0  0  0  0  0  0  0  0  0
   13.5907   -0.1425   60.3631 S   0  0  0  0  0  0  0  0  0  0  0  0
   16.5943    1.4795   58.1618 C   0  0  0  0  0  0  0  0  0  0  0  0
   15.5867   -0.2646   56.8277 C   0  0  0  0  0  0  0  0  0  0  0  0
   15.6952    1.2098   59.1936 C   0  0  0  0  0  0  0  0  0  0  0  0
   14.6875   -0.5343   57.8594 C   0  0  0  0  0  0  0  0  0  0  0  0
   16.5400    0.7423   56.9788 C   0  0  0  0  0  0  0  0  0  0  0  0
   14.7419    0.2029   59.0424 C   0  0  0  0  0  0  0  0  0  0  0  0
   17.5004    1.0325   55.8753 C   0  0  0  0  0  0  0  0  0  0  0  0
  1  2  1  0  0  0
  1  3  2  0  0  0
  2  4  2  0  0  0
  3  5  1  0  0  0
 16 18  2  0  0  0
 16 20  1  0  0  0
 17 19  1  0  0  0
 17 20  2  0  0  0
  4  6  1  0  0  0
 18 21  1  0  0  0
 19 21  2  0  0  0
  5  6  2  0  0  0
  5 11  1  0  0  0
 20 22  1  0  0  0
 21 15  1  0  0  0
  6 15  1  0  0  0
  7  9  1  0  0  0
  7 11  1  0  0  0
  8 10  1  0  0  0
  8 11  1  0  0  0
  9 12  1  0  0  0
 10 12  1  0  0  0
 12 13  1  0  0  0
 12 14  1  0  0  0
M  CHG 1  12   1
M  END
> <minimizedAffinity>
-8.03911

> <CNNscore>
0.2452469319

> <CNNaffinity>
5.7246608734

> <CNN_VS>
1.4039554596

> <CNNaffinity_variance>
0.1876667440

$$$$



 22 24  0  0  0  0  0  0  0  0999 V2000
   12.2831   -1.2337   55.3629 C   0  0  0  0  0  0  0  0  0  0  0  0
   12.6031   -0.9626   54.0371 C   0  0  0  0  0  0  0  0  0  0  0  0
   13.2011   -0.9497   56.3751 C   0  0  0  0  0  0  0  0  0  0  0  0
   13.8454   -0.4163   53.7196 C   0  0  0  0  0  0  0  0  0  0  0  0
   18.7880   -0.0562   55.3372 C   0  0  0  0  0  0  0  0  0  0  0  0
   19.6641   -0.4478   56.3480 C   0  0  0  0  0  0  0  0  0  0  0  0
   17.8096   -0.6138   57.8833 C   0  0  0  0  0  0  0  0  0  0  0  0
   14.4514   -0.3804   56.0760 C   0  0  0  0  0  0  0  0  0  0  0  0
   16.9134   -0.2010   56.8816 C   0  0  0  0  0  0  0  0  0  0  0  0
   14.7779   -0.1335   54.7289 C   0  0  0  0  0  0  0  0  0  0  0  0
   17.4130    0.0584   55.5913 C   0  0  0  0  0  0  0  0  0  0  0  0
   19.1749   -0.7312   57.6182 C   0  0  0  0  0  0  0  0  0  0  0  0
   15.4523   -0.0816   57.1352 C   0  0  0  0  0  0  0  0  0  0  0  0
   15.0308    0.4255   58.3101 C   0  0  0  0  0  0  0  0  0  0  0  0
   16.3544    0.5569   54.2366 S   0  0  0  0  0  0  0  0  0  0  0  0
   20.2528   -1.2322   58.8627 Cl  0  0  0  0  0  0  0  0  0  0  0  0
   15.9465    0.7632   59.4440 C   0  0  0  0  0  0  0  0  0  0  0  0
   15.4068    0.3012   60.7922 C   0  0  0  0  0  0  0  0  0  0  0  0
   13.9827   -1.5476   61.6617 C   0  0  0  0  0  0  0  0  0  0  0  0
   12.9364    0.3845   60.4901 C   0  0  0  0  0  0  0  0  0  0  0  0
   14.1633   -0.4866   60.6040 N   0  0  0  0  0  0  0  0  0  0  0  0
   14.2413   -0.9902   59.7039 H   0  0  0  0  0  0  0  0  0  0  0  0
  1  2  1  0  0  0
  1  3  2  0  0  0
  2  4  2  0  0  0
  3  8  1  0  0  0
  4 10  1  0  0  0
  5  6  2  0  0  0
  5 11  1  0  0  0
  6 12  1  0  0  0
  7  9  1  0  0  0
  7 12  2  0  0  0
  8 10  2  0  0  0
  8 13  1  0  0  0
  9 11  2  0  0  0
  9 13  1  0  0  0
 10 15  1  0  0  0
 11 15  1  0  0  0
 12 16  1  0  0  0
 13 14  2  0  0  0
 14 17  1  0  0  0
 19 21  1  0  0  0
 20 21  1  0  0  0
 17 18  1  0  0  0
 18 21  1  0  0  0
 21 22  1  0  0  0
M  CHG 1  21   1
M  END
> <minimizedAffinity>
-8.02266

> <CNNscore>
0.8726777434

> <CNNaffinity>
7.1438689232

> <CNN_VS>
6.2342953682

> <CNNaffinity_variance>
0.0760654360

$$$$



 22 24  0  0  0  0  0  0  0  0999 V2000
   13.3902   -4.7757   55.3423 C   0  0  0  0  0  0  0  0  0  0  0  0
   12.9497   -4.5168   54.0491 C   0  0  0  0  0  0  0  0  0  0  0  0
   13.9699   -3.7570   56.0999 C   0  0  0  0  0  0  0  0  0  0  0  0
   13.0970   -3.2413   53.5069 C   0  0  0  0  0  0  0  0  0  0  0  0
   15.9772    1.0967   53.7542 C   0  0  0  0  0  0  0  0  0  0  0  0
   17.0641    1.6807   54.4025 C   0  0  0  0  0  0  0  0  0  0  0  0
   16.6553    0.2879   56.3305 C   0  0  0  0  0  0  0  0  0  0  0  0
   14.1091   -2.4593   55.5769 C   0  0  0  0  0  0  0  0  0  0  0  0
   15.5437   -0.2984   55.7000 C   0  0  0  0  0  0  0  0  0  0  0  0
   13.6847   -2.2120   54.2575 C   0  0  0  0  0  0  0  0  0  0  0  0
   15.2202    0.1007   54.3893 C   0  0  0  0  0  0  0  0  0  0  0  0
   17.4059    1.2732   55.6872 C   0  0  0  0  0  0  0  0  0  0  0  0
   14.7363   -1.3601   56.3589 C   0  0  0  0  0  0  0  0  0  0  0  0
   14.4654   -1.2553   57.6746 C   0  0  0  0  0  0  0  0  0  0  0  0
   13.8468   -0.6057   53.4844 S   0  0  0  0  0  0  0  0  0  0  0  0
   18.7585    1.9805   56.4821 Cl  0  0  0  0  0  0  0  0  0  0  0  0
   15.0386   -0.1921   58.5573 C   0  0  0  0  0  0  0  0  0  0  0  0
   14.4724   -0.2347   59.9715 C   0  0  0  0  0  0  0  0  0  0  0  0
   13.2432    1.6677   58.9361 C   0  0  0  0  0  0  0  0  0  0  0  0
   12.0173   -0.0027   60.3172 C   0  0  0  0  0  0  0  0  0  0  0  0
   13.3311    0.7057   60.0953 N   0  0  0  0  0  0  0  0  0  0  0  0
   13.4892    1.2856   60.9371 H   0  0  0  0  0  0  0  0  0  0  0  0
  1  2  1  0  0  0
  1  3  2  0  0  0
  2  4  2  0  0  0
  3  8  1  0  0  0
  4 10  1  0  0  0
  5  6  2  0  0  0
  5 11  1  0  0  0
  6 12  1  0  0  0
  7  9  1  0  0  0
  7 12  2  0  0  0
  8 10  2  0  0  0
  8 13  1  0  0  0
  9 11  2  0  0  0
  9 13  1  0  0  0
 10 15  1  0  0  0
 11 15  1  0  0  0
 12 16  1  0  0  0
 13 14  2  0  0  0
 14 17  1  0  0  0
 19 21  1  0  0  0
 20 21  1  0  0  0
 17 18  1  0  0  0
 18 21  1  0  0  0
 21 22  1  0  0  0
M  CHG 1  21   1
M  END
> <minimizedAffinity>
0.73021

> <CNNscore>
0.4716718793

> <CNNaffinity>
6.2442994118

> <CNN_VS>
2.9452605247

> <CNNaffinity_variance>
0.8185855746

$$$$



 22 24  0  0  0  0  0  0  0  0999 V2000
   12.2745    3.7047   54.1732 C   0  0  0  0  0  0  0  0  0  0  0  0
   11.5852    4.3908   55.1670 C   0  0  0  0  0  0  0  0  0  0  0  0
   12.8556    2.4670   54.4533 C   0  0  0  0  0  0  0  0  0  0  0  0
   11.4840    3.8456   56.4457 C   0  0  0  0  0  0  0  0  0  0  0  0
   13.8346    0.6417   59.8198 C   0  0  0  0  0  0  0  0  0  0  0  0
   14.9430   -0.1867   59.9872 C   0  0  0  0  0  0  0  0  0  0  0  0
   15.0472   -0.5204   57.5994 C   0  0  0  0  0  0  0  0  0  0  0  0
   12.7473    1.8923   55.7319 C   0  0  0  0  0  0  0  0  0  0  0  0
   13.9181    0.2964   57.4127 C   0  0  0  0  0  0  0  0  0  0  0  0
   12.0704    2.6055   56.7396 C   0  0  0  0  0  0  0  0  0  0  0  0
   13.3237    0.8974   58.5384 C   0  0  0  0  0  0  0  0  0  0  0  0
   15.5517   -0.7630   58.8779 C   0  0  0  0  0  0  0  0  0  0  0  0
   13.3697    0.5814   56.0594 C   0  0  0  0  0  0  0  0  0  0  0  0
   13.3253   -0.4104   55.1486 C   0  0  0  0  0  0  0  0  0  0  0  0
   11.9042    1.9803   58.4086 S   0  0  0  0  0  0  0  0  0  0  0  0
   16.9312   -1.7715   59.0814 Cl  0  0  0  0  0  0  0  0  0  0  0  0
   13.9169   -1.7665   55.3696 C   0  0  0  0  0  0  0  0  0  0  0  0
   12.9268   -2.7452   55.9894 C   0  0  0  0  0  0  0  0  0  0  0  0
   10.6091   -2.1037   55.3422 C   0  0  0  0  0  0  0  0  0  0  0  0
   11.1715   -2.4891   57.7371 C   0  0  0  0  0  0  0  0  0  0  0  0
   11.6886   -2.0345   56.3943 N   0  0  0  0  0  0  0  0  0  0  0  0
   11.9201   -1.0321   56.5012 H   0  0  0  0  0  0  0  0  0  0  0  0
  1  2  1  0  0  0
  1  3  2  0  0  0
  2  4  2  0  0  0
  3  8  1  0  0  0
  4 10  1  0  0  0
  5  6  2  0  0  0
  5 11  1  0  0  0
  6 12  1  0  0  0
  7  9  1  0  0  0
  7 12  2  0  0  0
  8 10  2  0  0  0
  8 13  1  0  0  0
  9 11  2  0  0  0
  9 13  1  0  0  0
 10 15  1  0  0  0
 11 15  1  0  0  0
 12 16  1  0  0  0
 13 14  2  0  0  0
 14 17  1  0  0  0
 19 21  1  0  0  0
 20 21  1  0  0  0
 17 18  1  0  0  0
 18 21  1  0  0  0
 21 22  1  0  0  0
M  CHG 1  21   1
M  END
> <minimizedAffinity>
10.40076

> <CNNscore>
0.4467033744

> <CNNaffinity>
5.8936910629

> <CNN_VS>
2.6327316761

> <CNNaffinity_variance>
1.1025151014

$$$$



 22 24  0  0  0  0  0  0  0  0999 V2000
   11.9058   -0.0765   59.7192 C   0  0  0  0  0  0  0  0  0  0  0  0
   11.5946    1.2786   59.7390 C   0  0  0  0  0  0  0  0  0  0  0  0
   11.2656   -0.9531   60.5965 C   0  0  0  0  0  0  0  0  0  0  0  0
   10.6500    1.7617   60.6428 C   0  0  0  0  0  0  0  0  0  0  0  0
    8.4567    0.8469   65.2826 C   0  0  0  0  0  0  0  0  0  0  0  0
    8.4609   -0.0283   66.3673 C   0  0  0  0  0  0  0  0  0  0  0  0
    9.2205   -1.8060   64.9226 C   0  0  0  0  0  0  0  0  0  0  0  0
   10.2960   -0.4872   61.5018 C   0  0  0  0  0  0  0  0  0  0  0  0
    9.2034   -0.9428   63.8130 C   0  0  0  0  0  0  0  0  0  0  0  0
   10.0059    0.8901   61.5336 C   0  0  0  0  0  0  0  0  0  0  0  0
    8.8366    0.4024   64.0073 C   0  0  0  0  0  0  0  0  0  0  0  0
    8.8472   -1.3520   66.1886 C   0  0  0  0  0  0  0  0  0  0  0  0
    9.6100   -1.3988   62.4565 C   0  0  0  0  0  0  0  0  0  0  0  0
    9.2397   -2.6253   62.0396 C   0  0  0  0  0  0  0  0  0  0  0  0
    8.8137    1.5918   62.6697 S   0  0  0  0  0  0  0  0  0  0  0  0
    8.8702   -2.4294   67.5303 Cl  0  0  0  0  0  0  0  0  0  0  0  0
    8.5452   -3.6231   62.9115 C   0  0  0  0  0  0  0  0  0  0  0  0
    7.0800   -3.8112   62.5367 C   0  0  0  0  0  0  0  0  0  0  0  0
    5.6357   -2.5750   64.1453 C   0  0  0  0  0  0  0  0  0  0  0  0
    5.1929   -4.9783   63.6671 C   0  0  0  0  0  0  0  0  0  0  0  0
    6.2451   -3.9006   63.7603 N   0  0  0  0  0  0  0  0  0  0  0  0
    6.8625   -4.1705   64.5452 H   0  0  0  0  0  0  0  0  0  0  0  0
  1  2  1  0  0  0
  1  3  2  0  0  0
  2  4  2  0  0  0
  3  8  1  0  0  0
  4 10  1  0  0  0
  5  6  2  0  0  0
  5 11  1  0  0  0
  6 12  1  0  0  0
  7  9  1  0  0  0
  7 12  2  0  0  0
  8 10  2  0  0  0
  8 13  1  0  0  0
  9 11  2  0  0  0
  9 13  1  0  0  0
 10 15  1  0  0  0
 11 15  1  0  0  0
 12 16  1  0  0  0
 13 14  2  0  0  0
 14 17  1  0  0  0
 19 21  1  0  0  0
 20 21  1  0  0  0
 17 18  1  0  0  0
 18 21  1  0  0  0
 21 22  1  0  0  0
M  CHG 1  21   1
M  END
> <minimizedAffinity>
-7.28855

> <CNNscore>
0.4428059459

> <CNNaffinity>
6.0472331047

> <CNN_VS>
2.6777508259

> <CNNaffinity_variance>
0.1510740817

$$$$



 22 24  0  0  0  0  0  0  0  0999 V2000
   13.6923    0.7833   60.6333 C   0  0  0  0  0  0  0  0  0  0  0  0
   14.3909    0.7718   59.4310 C   0  0  0  0  0  0  0  0  0  0  0  0
   12.4598    0.1358   60.7313 C   0  0  0  0  0  0  0  0  0  0  0  0
   13.8539    0.1213   58.3214 C   0  0  0  0  0  0  0  0  0  0  0  0
    9.3723   -1.3750   56.1188 C   0  0  0  0  0  0  0  0  0  0  0  0
    7.9884   -1.3662   56.2845 C   0  0  0  0  0  0  0  0  0  0  0  0
    8.2812   -1.2595   58.6776 C   0  0  0  0  0  0  0  0  0  0  0  0
   11.9115   -0.5421   59.6282 C   0  0  0  0  0  0  0  0  0  0  0  0
    9.6792   -1.2875   58.5310 C   0  0  0  0  0  0  0  0  0  0  0  0
   12.6126   -0.5266   58.4074 C   0  0  0  0  0  0  0  0  0  0  0  0
   10.2233   -1.3243   57.2331 C   0  0  0  0  0  0  0  0  0  0  0  0
    7.4434   -1.3034   57.5621 C   0  0  0  0  0  0  0  0  0  0  0  0
   10.5934   -1.2277   59.7032 C   0  0  0  0  0  0  0  0  0  0  0  0
   10.2747   -1.9139   60.8180 C   0  0  0  0  0  0  0  0  0  0  0  0
   11.9882   -1.3290   56.9341 S   0  0  0  0  0  0  0  0  0  0  0  0
    5.7351   -1.2744   57.7675 Cl  0  0  0  0  0  0  0  0  0  0  0  0
    8.9799   -2.6401   61.0031 C   0  0  0  0  0  0  0  0  0  0  0  0
    8.1083   -2.0191   62.0881 C   0  0  0  0  0  0  0  0  0  0  0  0
    9.3423    0.0463   62.7311 C   0  0  0  0  0  0  0  0  0  0  0  0
    8.3397   -1.4036   64.4899 C   0  0  0  0  0  0  0  0  0  0  0  0
    8.9562   -1.3615   63.1132 N   0  0  0  0  0  0  0  0  0  0  0  0
    9.8412   -1.8929   63.1796 H   0  0  0  0  0  0  0  0  0  0  0  0
  1  2  1  0  0  0
  1  3  2  0  0  0
  2  4  2  0  0  0
  3  8  1  0  0  0
  4 10  1  0  0  0
  5  6  2  0  0  0
  5 11  1  0  0  0
  6 12  1  0  0  0
  7  9  1  0  0  0
  7 12  2  0  0  0
  8 10  2  0  0  0
  8 13  1  0  0  0
  9 11  2  0  0  0
  9 13  1  0  0  0
 10 15  1  0  0  0
 11 15  1  0  0  0
 12 16  1  0  0  0
 13 14  2  0  0  0
 14 17  1  0  0  0
 19 21  1  0  0  0
 20 21  1  0  0  0
 17 18  1  0  0  0
 18 21  1  0  0  0
 21 22  1  0  0  0
M  CHG 1  21   1
M  END
> <minimizedAffinity>
-2.38370

> <CNNscore>
0.4097453952

> <CNNaffinity>
5.7632079124

> <CNN_VS>
2.3614478111

> <CNNaffinity_variance>
0.6815549135

$$$$



 22 24  0  0  0  0  0  0  0  0999 V2000
    8.4286   -1.3806   58.5458 C   0  0  0  0  0  0  0  0  0  0  0  0
    7.6919   -2.0211   57.5556 C   0  0  0  0  0  0  0  0  0  0  0  0
    8.3248   -1.7977   59.8737 C   0  0  0  0  0  0  0  0  0  0  0  0
    6.8423   -3.0734   57.8923 C   0  0  0  0  0  0  0  0  0  0  0  0
    3.9809   -5.0554   61.7730 C   0  0  0  0  0  0  0  0  0  0  0  0
    3.6044   -4.8529   63.0996 C   0  0  0  0  0  0  0  0  0  0  0  0
    5.6569   -3.6458   63.4920 C   0  0  0  0  0  0  0  0  0  0  0  0
    7.4878   -2.8699   60.2296 C   0  0  0  0  0  0  0  0  0  0  0  0
    6.0625   -3.8572   62.1625 C   0  0  0  0  0  0  0  0  0  0  0  0
    6.7254   -3.4958   59.2250 C   0  0  0  0  0  0  0  0  0  0  0  0
    5.1999   -4.5524   61.2939 C   0  0  0  0  0  0  0  0  0  0  0  0
    4.4390   -4.1445   63.9568 C   0  0  0  0  0  0  0  0  0  0  0  0
    7.3491   -3.3240   61.6394 C   0  0  0  0  0  0  0  0  0  0  0  0
    8.4436   -3.3679   62.4239 C   0  0  0  0  0  0  0  0  0  0  0  0
    5.6045   -4.8468   59.5752 S   0  0  0  0  0  0  0  0  0  0  0  0
    3.9674   -3.8781   65.5903 Cl  0  0  0  0  0  0  0  0  0  0  0  0
    8.4220   -3.8072   63.8538 C   0  0  0  0  0  0  0  0  0  0  0  0
    9.2531   -2.9048   64.7579 C   0  0  0  0  0  0  0  0  0  0  0  0
    9.1982   -2.1125   67.1183 C   0  0  0  0  0  0  0  0  0  0  0  0
    7.6388   -1.1359   65.4404 C   0  0  0  0  0  0  0  0  0  0  0  0
    8.4126   -2.3634   65.8546 N   0  0  0  0  0  0  0  0  0  0  0  0
    7.7060   -3.0797   66.0944 H   0  0  0  0  0  0  0  0  0  0  0  0
  1  2  1  0  0  0
  1  3  2  0  0  0
  2  4  2  0  0  0
  3  8  1  0  0  0
  4 10  1  0  0  0
  5  6  2  0  0  0
  5 11  1  0  0  0
  6 12  1  0  0  0
  7  9  1  0  0  0
  7 12  2  0  0  0
  8 10  2  0  0  0
  8 13  1  0  0  0
  9 11  2  0  0  0
  9 13  1  0  0  0
 10 15  1  0  0  0
 11 15  1  0  0  0
 12 16  1  0  0  0
 13 14  2  0  0  0
 14 17  1  0  0  0
 19 21  1  0  0  0
 20 21  1  0  0  0
 17 18  1  0  0  0
 18 21  1  0  0  0
 21 22  1  0  0  0
M  CHG 1  21   1
M  END
> <minimizedAffinity>
-6.90605

> <CNNscore>
0.3661512733

> <CNNaffinity>
5.6108508110

> <CNN_VS>
2.0544202328

> <CNNaffinity_variance>
0.0904256701

$$$$



 22 24  0  0  0  0  0  0  0  0999 V2000
    8.6395   -3.5237   62.2188 C   0  0  0  0  0  0  0  0  0  0  0  0
    7.4317   -3.7299   61.5615 C   0  0  0  0  0  0  0  0  0  0  0  0
    9.6042   -2.6837   61.6604 C   0  0  0  0  0  0  0  0  0  0  0  0
    7.1897   -3.1045   60.3396 C   0  0  0  0  0  0  0  0  0  0  0  0
    9.5306   -1.1227   56.1244 C   0  0  0  0  0  0  0  0  0  0  0  0
   10.7758   -0.8982   55.5397 C   0  0  0  0  0  0  0  0  0  0  0  0
   11.7868   -0.8357   57.7302 C   0  0  0  0  0  0  0  0  0  0  0  0
    9.3702   -2.0290   60.4383 C   0  0  0  0  0  0  0  0  0  0  0  0
   10.5361   -1.0418   58.3387 C   0  0  0  0  0  0  0  0  0  0  0  0
    8.1555   -2.2638   59.7663 C   0  0  0  0  0  0  0  0  0  0  0  0
    9.4035   -1.2073   57.5191 C   0  0  0  0  0  0  0  0  0  0  0  0
   11.9034   -0.7600   56.3414 C   0  0  0  0  0  0  0  0  0  0  0  0
   10.3877   -1.1402   59.8157 C   0  0  0  0  0  0  0  0  0  0  0  0
   11.1062   -0.3156   60.6024 C   0  0  0  0  0  0  0  0  0  0  0  0
    7.7714   -1.5077   58.1899 S   0  0  0  0  0  0  0  0  0  0  0  0
   13.4443   -0.5007   55.6203 Cl  0  0  0  0  0  0  0  0  0  0  0  0
   12.1538    0.6194   60.0861 C   0  0  0  0  0  0  0  0  0  0  0  0
   13.5067   -0.0579   59.9034 C   0  0  0  0  0  0  0  0  0  0  0  0
   14.2643   -0.6508   62.2005 C   0  0  0  0  0  0  0  0  0  0  0  0
   15.8518    0.4071   60.6001 C   0  0  0  0  0  0  0  0  0  0  0  0
   14.4098    0.2889   61.0288 N   0  0  0  0  0  0  0  0  0  0  0  0
   14.1370    1.2241   61.3764 H   0  0  0  0  0  0  0  0  0  0  0  0
  1  2  1  0  0  0
  1  3  2  0  0  0
  2  4  2  0  0  0
  3  8  1  0  0  0
  4 10  1  0  0  0
  5  6  2  0  0  0
  5 11  1  0  0  0
  6 12  1  0  0  0
  7  9  1  0  0  0
  7 12  2  0  0  0
  8 10  2  0  0  0
  8 13  1  0  0  0
  9 11  2  0  0  0
  9 13  1  0  0  0
 10 15  1  0  0  0
 11 15  1  0  0  0
 12 16  1  0  0  0
 13 14  2  0  0  0
 14 17  1  0  0  0
 19 21  1  0  0  0
 20 21  1  0  0  0
 17 18  1  0  0  0
 18 21  1  0  0  0
 21 22  1  0  0  0
M  CHG 1  21   1
M  END
> <minimizedAffinity>
-7.26401

> <CNNscore>
0.3568678200

> <CNNaffinity>
6.0828299522

> <CNN_VS>
2.1707663536

> <CNNaffinity_variance>
0.0514163561

$$$$



 22 24  0  0  0  0  0  0  0  0999 V2000
    9.6357   -2.2672   58.1967 C   0  0  0  0  0  0  0  0  0  0  0  0
    9.9994   -0.9368   58.0199 C   0  0  0  0  0  0  0  0  0  0  0  0
    9.1489   -2.7002   59.4310 C   0  0  0  0  0  0  0  0  0  0  0  0
    9.8866   -0.0387   59.0797 C   0  0  0  0  0  0  0  0  0  0  0  0
    9.8754    0.3057   64.2813 C   0  0  0  0  0  0  0  0  0  0  0  0
    9.9829   -0.4447   65.4509 C   0  0  0  0  0  0  0  0  0  0  0  0
    9.1382   -2.3790   64.2809 C   0  0  0  0  0  0  0  0  0  0  0  0
    9.0098   -1.8046   60.5058 C   0  0  0  0  0  0  0  0  0  0  0  0
    9.0041   -1.6329   63.0968 C   0  0  0  0  0  0  0  0  0  0  0  0
    9.4050   -0.4652   60.3264 C   0  0  0  0  0  0  0  0  0  0  0  0
    9.3991   -0.2816   63.0996 C   0  0  0  0  0  0  0  0  0  0  0  0
    9.6196   -1.7868   65.4495 C   0  0  0  0  0  0  0  0  0  0  0  0
    8.5068   -2.2444   61.8350 C   0  0  0  0  0  0  0  0  0  0  0  0
    7.4914   -3.1281   61.8913 C   0  0  0  0  0  0  0  0  0  0  0  0
    9.3011    0.7479   61.6385 S   0  0  0  0  0  0  0  0  0  0  0  0
    9.7688   -2.7193   66.8882 Cl  0  0  0  0  0  0  0  0  0  0  0  0
    6.9066   -3.6392   63.1699 C   0  0  0  0  0  0  0  0  0  0  0  0
    5.3837   -3.5838   63.1826 C   0  0  0  0  0  0  0  0  0  0  0  0
    5.5867   -1.6236   64.7052 C   0  0  0  0  0  0  0  0  0  0  0  0
    3.4028   -2.7966   64.4699 C   0  0  0  0  0  0  0  0  0  0  0  0
    4.9044   -2.9414   64.4314 N   0  0  0  0  0  0  0  0  0  0  0  0
    5.1524   -3.5615   65.2213 H   0  0  0  0  0  0  0  0  0  0  0  0
  1  2  1  0  0  0
  1  3  2  0  0  0
  2  4  2  0  0  0
  3  8  1  0  0  0
  4 10  1  0  0  0
  5  6  2  0  0  0
  5 11  1  0  0  0
  6 12  1  0  0  0
  7  9  1  0  0  0
  7 12  2  0  0  0
  8 10  2  0  0  0
  8 13  1  0  0  0
  9 11  2  0  0  0
  9 13  1  0  0  0
 10 15  1  0  0  0
 11 15  1  0  0  0
 12 16  1  0  0  0
 13 14  2  0  0  0
 14 17  1  0  0  0
 19 21  1  0  0  0
 20 21  1  0  0  0
 17 18  1  0  0  0
 18 21  1  0  0  0
 21 22  1  0  0  0
M  CHG 1  21   1
M  END
> <minimizedAffinity>
-7.18660

> <CNNscore>
0.3550445139

> <CNNaffinity>
5.8178596497

> <CNN_VS>
2.0655992031

> <CNNaffinity_variance>
0.1451523006

$$$$



 22 24  0  0  0  0  0  0  0  0999 V2000
    6.8451   -2.6601   57.7847 C   0  0  0  0  0  0  0  0  0  0  0  0
    6.6374   -3.4085   58.9380 C   0  0  0  0  0  0  0  0  0  0  0  0
    7.8186   -1.6601   57.7667 C   0  0  0  0  0  0  0  0  0  0  0  0
    7.3956   -3.1520   60.0790 C   0  0  0  0  0  0  0  0  0  0  0  0
   10.0709    0.5651   62.5693 C   0  0  0  0  0  0  0  0  0  0  0  0
   10.4596    1.9015   62.4956 C   0  0  0  0  0  0  0  0  0  0  0  0
   10.3131    1.8056   60.0887 C   0  0  0  0  0  0  0  0  0  0  0  0
    8.6064   -1.4001   58.9018 C   0  0  0  0  0  0  0  0  0  0  0  0
    9.9390    0.4513   60.1423 C   0  0  0  0  0  0  0  0  0  0  0  0
    8.3718   -2.1444   60.0737 C   0  0  0  0  0  0  0  0  0  0  0  0
    9.7980   -0.1627   61.4013 C   0  0  0  0  0  0  0  0  0  0  0  0
   10.5757    2.5226   61.2570 C   0  0  0  0  0  0  0  0  0  0  0  0
    9.6404   -0.3306   58.9124 C   0  0  0  0  0  0  0  0  0  0  0  0
   10.4071   -0.1501   57.8193 C   0  0  0  0  0  0  0  0  0  0  0  0
    9.2947   -1.8709   61.5829 S   0  0  0  0  0  0  0  0  0  0  0  0
   11.0381    4.1777   61.1651 Cl  0  0  0  0  0  0  0  0  0  0  0  0
   11.4751    0.8926   57.7184 C   0  0  0  0  0  0  0  0  0  0  0  0
   12.8781    0.3097   57.8394 C   0  0  0  0  0  0  0  0  0  0  0  0
   13.5136   -0.1097   60.2105 C   0  0  0  0  0  0  0  0  0  0  0  0
   14.9653    1.3047   58.7639 C   0  0  0  0  0  0  0  0  0  0  0  0
   13.5547    0.8483   59.0453 N   0  0  0  0  0  0  0  0  0  0  0  0
   13.0366    1.6905   59.3489 H   0  0  0  0  0  0  0  0  0  0  0  0
  1  2  1  0  0  0
  1  3  2  0  0  0
  2  4  2  0  0  0
  3  8  1  0  0  0
  4 10  1  0  0  0
  5  6  2  0  0  0
  5 11  1  0  0  0
  6 12  1  0  0  0
  7  9  1  0  0  0
  7 12  2  0  0  0
  8 10  2  0  0  0
  8 13  1  0  0  0
  9 11  2  0  0  0
  9 13  1  0  0  0
 10 15  1  0  0  0
 11 15  1  0  0  0
 12 16  1  0  0  0
 13 14  2  0  0  0
 14 17  1  0  0  0
 19 21  1  0  0  0
 20 21  1  0  0  0
 17 18  1  0  0  0
 18 21  1  0  0  0
 21 22  1  0  0  0
M  CHG 1  21   1
M  END
> <minimizedAffinity>
-7.69356

> <CNNscore>
0.3508771658

> <CNNaffinity>
5.9311423302

> <CNN_VS>
2.0811023712

> <CNNaffinity_variance>
0.2841172814

$$$$



 28 30  0  0  0  0  0  0  0  0999 V2000
    6.0487   -4.1649   61.0546 C   0  0  0  0  0  0  0  0  0  0  0  0
    5.6665   -4.0913   59.7151 C   0  0  0  0  0  0  0  0  0  0  0  0
    7.3113   -3.7189   61.4451 C   0  0  0  0  0  0  0  0  0  0  0  0
    6.5470   -3.5715   58.7662 C   0  0  0  0  0  0  0  0  0  0  0  0
    8.1917   -3.1990   60.4963 C   0  0  0  0  0  0  0  0  0  0  0  0
    7.8095   -3.1254   59.1568 C   0  0  0  0  0  0  0  0  0  0  0  0
    8.8180   -1.2753   57.7850 C   0  0  0  0  0  0  0  0  0  0  0  0
    8.6772   -2.6082   58.1915 N   0  0  0  0  0  0  0  0  0  0  0  0
    8.1997   -0.3050   58.2065 O   0  0  0  0  0  0  0  0  0  0  0  0
    9.2863   -3.2885   57.7229 H   0  0  0  0  0  0  0  0  0  0  0  0
   11.1605   -1.1663   57.0466 C   0  0  0  0  0  0  0  0  0  0  0  0
    9.8595   -1.1313   56.7220 C   0  0  0  0  0  0  0  0  0  0  0  0
   14.3601   -0.7592   54.2586 C   0  0  0  0  0  0  0  0  0  0  0  0
   14.5893   -0.5502   55.6184 C   0  0  0  0  0  0  0  0  0  0  0  0
   13.0840   -1.1013   53.8109 C   0  0  0  0  0  0  0  0  0  0  0  0
   13.5427   -0.6833   56.5307 C   0  0  0  0  0  0  0  0  0  0  0  0
   12.0373   -1.2345   54.7233 C   0  0  0  0  0  0  0  0  0  0  0  0
   12.2666   -1.0254   56.0832 C   0  0  0  0  0  0  0  0  0  0  0  0
    9.5499   -2.7245   60.9474 C   0  0  0  0  0  0  0  0  0  0  0  0
    9.4878   -1.2961   61.4858 C   0  0  0  0  0  0  0  0  0  0  0  0
   11.4289    0.6577   63.1047 C   0  0  0  0  0  0  0  0  0  0  0  0
   10.9117    1.9993   62.6013 C   0  0  0  0  0  0  0  0  0  0  0  0
   11.7811   -0.2720   61.9481 C   0  0  0  0  0  0  0  0  0  0  0  0
    9.7466    1.8331   61.6384 C   0  0  0  0  0  0  0  0  0  0  0  0
   10.6393   -0.4503   60.9437 C   0  0  0  0  0  0  0  0  0  0  0  0
   10.9813    1.5663   59.4622 C   0  0  0  0  0  0  0  0  0  0  0  0
   10.1074    0.9055   60.4996 N   0  0  0  0  0  0  0  0  0  0  0  0
    9.1985    0.6988   59.9907 H   0  0  0  0  0  0  0  0  0  0  0  0
 13 14  1  0  0  0
 13 15  2  0  0  0
 14 16  2  0  0  0
 15 17  1  0  0  0
  1  2  1  0  0  0
  1  3  2  0  0  0
  2  4  2  0  0  0
 16 18  1  0  0  0
 17 18  2  0  0  0
  3  5  1  0  0  0
  4  6  1  0  0  0
 18 11  1  0  0  0
  5  6  2  0  0  0
  5 19  1  0  0  0
  6  8  1  0  0  0
 11 12  2  0  0  0
 12  7  1  0  0  0
  7  8  1  0  0  0
  7  9  2  0  0  0
 21 22  1  0  0  0
 21 23  1  0  0  0
 22 24  1  0  0  0
 23 25  1  0  0  0
 24 27  1  0  0  0
 25 20  1  0  0  0
 25 27  1  0  0  0
 26 27  1  0  0  0
 19 20  1  0  0  0
  8 10  1  0  0  0
 27 28  1  0  0  0
M  CHG 1  27   1
M  END
> <minimizedAffinity>
-8.71003

> <CNNscore>
0.5691089630

> <CNNaffinity>
6.1912808418

> <CNN_VS>
3.5235133171

> <CNNaffinity_variance>
0.1892462671

$$$$



 28 30  0  0  0  0  0  0  0  0999 V2000
    6.1128   -4.0114   61.3037 C   0  0  0  0  0  0  0  0  0  0  0  0
    5.7442   -4.0779   59.9601 C   0  0  0  0  0  0  0  0  0  0  0  0
    7.3475   -3.4705   61.6623 C   0  0  0  0  0  0  0  0  0  0  0  0
    6.6103   -3.6033   58.9751 C   0  0  0  0  0  0  0  0  0  0  0  0
    8.2136   -2.9960   60.6772 C   0  0  0  0  0  0  0  0  0  0  0  0
    7.8450   -3.0624   59.3336 C   0  0  0  0  0  0  0  0  0  0  0  0
    8.7478   -1.3088   57.7742 C   0  0  0  0  0  0  0  0  0  0  0  0
    8.6987   -2.5926   58.3323 N   0  0  0  0  0  0  0  0  0  0  0  0
    8.0437   -0.3492   58.0651 O   0  0  0  0  0  0  0  0  0  0  0  0
    9.3726   -3.2714   57.9602 H   0  0  0  0  0  0  0  0  0  0  0  0
   11.0988   -1.1346   57.0764 C   0  0  0  0  0  0  0  0  0  0  0  0
    9.8067   -1.2058   56.7237 C   0  0  0  0  0  0  0  0  0  0  0  0
   14.3427   -0.8071   54.3294 C   0  0  0  0  0  0  0  0  0  0  0  0
   13.0589   -1.0877   53.8620 C   0  0  0  0  0  0  0  0  0  0  0  0
   14.5652   -0.6337   55.6955 C   0  0  0  0  0  0  0  0  0  0  0  0
   11.9974   -1.1948   54.7605 C   0  0  0  0  0  0  0  0  0  0  0  0
   13.5037   -0.7409   56.5941 C   0  0  0  0  0  0  0  0  0  0  0  0
   12.2198   -1.0215   56.1266 C   0  0  0  0  0  0  0  0  0  0  0  0
    9.5417   -2.4166   61.0943 C   0  0  0  0  0  0  0  0  0  0  0  0
    9.3865   -0.9853   61.6056 C   0  0  0  0  0  0  0  0  0  0  0  0
    8.0106   -1.1396   64.4847 C   0  0  0  0  0  0  0  0  0  0  0  0
    8.0627    0.3341   64.8673 C   0  0  0  0  0  0  0  0  0  0  0  0
    9.3846   -1.6555   64.0699 C   0  0  0  0  0  0  0  0  0  0  0  0
    8.6738    1.1850   63.7651 C   0  0  0  0  0  0  0  0  0  0  0  0
   10.0437   -0.8129   62.9744 C   0  0  0  0  0  0  0  0  0  0  0  0
   11.1151    1.0140   64.3504 C   0  0  0  0  0  0  0  0  0  0  0  0
   10.0331    0.6601   63.3600 N   0  0  0  0  0  0  0  0  0  0  0  0
   10.2984    1.1848   62.4757 H   0  0  0  0  0  0  0  0  0  0  0  0
 13 14  1  0  0  0
 13 15  2  0  0  0
 14 16  2  0  0  0
 15 17  1  0  0  0
  1  2  1  0  0  0
  1  3  2  0  0  0
  2  4  2  0  0  0
 16 18  1  0  0  0
 17 18  2  0  0  0
  3  5  1  0  0  0
  4  6  1  0  0  0
 18 11  1  0  0  0
  5  6  2  0  0  0
  5 19  1  0  0  0
  6  8  1  0  0  0
 11 12  2  0  0  0
 12  7  1  0  0  0
  7  8  1  0  0  0
  7  9  2  0  0  0
 21 22  1  0  0  0
 21 23  1  0  0  0
 22 24  1  0  0  0
 23 25  1  0  0  0
 24 27  1  0  0  0
 25 20  1  0  0  0
 25 27  1  0  0  0
 26 27  1  0  0  0
 19 20  1  0  0  0
  8 10  1  0  0  0
 27 28  1  0  0  0
M  CHG 1  27   1
M  END
> <minimizedAffinity>
-8.85180

> <CNNscore>
0.5535211563

> <CNNaffinity>
6.2612204552

> <CNN_VS>
3.4657180309

> <CNNaffinity_variance>
0.1177513450

$$$$



 28 30  0  0  0  0  0  0  0  0999 V2000
   11.7347   -0.5250   53.6915 C   0  0  0  0  0  0  0  0  0  0  0  0
   12.9605   -0.3342   53.0538 C   0  0  0  0  0  0  0  0  0  0  0  0
   11.6868   -0.6891   55.0759 C   0  0  0  0  0  0  0  0  0  0  0  0
   14.1384   -0.3075   53.8006 C   0  0  0  0  0  0  0  0  0  0  0  0
   12.8646   -0.6624   55.8226 C   0  0  0  0  0  0  0  0  0  0  0  0
   14.0904   -0.4716   55.1849 C   0  0  0  0  0  0  0  0  0  0  0  0
   15.6622    0.4726   56.9054 C   0  0  0  0  0  0  0  0  0  0  0  0
   15.2811   -0.4420   55.9154 N   0  0  0  0  0  0  0  0  0  0  0  0
   15.0137    1.4262   57.3194 O   0  0  0  0  0  0  0  0  0  0  0  0
   15.9598   -1.1813   55.7001 H   0  0  0  0  0  0  0  0  0  0  0  0
   17.9417   -0.4166   56.6651 C   0  0  0  0  0  0  0  0  0  0  0  0
   17.0194    0.1607   57.4495 C   0  0  0  0  0  0  0  0  0  0  0  0
   21.8813   -1.4536   57.9223 C   0  0  0  0  0  0  0  0  0  0  0  0
   20.8302   -1.4689   58.8390 C   0  0  0  0  0  0  0  0  0  0  0  0
   21.6434   -1.0990   56.5943 C   0  0  0  0  0  0  0  0  0  0  0  0
   19.5412   -1.1296   58.4280 C   0  0  0  0  0  0  0  0  0  0  0  0
   20.3544   -0.7598   56.1832 C   0  0  0  0  0  0  0  0  0  0  0  0
   19.3032   -0.7750   57.1000 C   0  0  0  0  0  0  0  0  0  0  0  0
   12.7823   -0.8426   57.3174 C   0  0  0  0  0  0  0  0  0  0  0  0
   11.8164    0.1612   57.9446 C   0  0  0  0  0  0  0  0  0  0  0  0
    8.9353    0.4712   59.2899 C   0  0  0  0  0  0  0  0  0  0  0  0
    9.2561    1.5397   60.3272 C   0  0  0  0  0  0  0  0  0  0  0  0
    9.8981   -0.7075   59.3894 C   0  0  0  0  0  0  0  0  0  0  0  0
   10.7064    1.9899   60.2481 C   0  0  0  0  0  0  0  0  0  0  0  0
   11.3713   -0.2940   59.3339 C   0  0  0  0  0  0  0  0  0  0  0  0
   11.7983    0.2941   61.7527 C   0  0  0  0  0  0  0  0  0  0  0  0
   11.6499    0.8116   60.3431 N   0  0  0  0  0  0  0  0  0  0  0  0
   12.6119    1.1855   60.0932 H   0  0  0  0  0  0  0  0  0  0  0  0
 13 14  1  0  0  0
 13 15  2  0  0  0
 14 16  2  0  0  0
 15 17  1  0  0  0
  1  2  1  0  0  0
  1  3  2  0  0  0
  2  4  2  0  0  0
 16 18  1  0  0  0
 17 18  2  0  0  0
  3  5  1  0  0  0
  4  6  1  0  0  0
 18 11  1  0  0  0
  5  6  2  0  0  0
  5 19  1  0  0  0
  6  8  1  0  0  0
 11 12  2  0  0  0
 12  7  1  0  0  0
  7  8  1  0  0  0
  7  9  2  0  0  0
 21 22  1  0  0  0
 21 23  1  0  0  0
 22 24  1  0  0  0
 23 25  1  0  0  0
 24 27  1  0  0  0
 25 20  1  0  0  0
 25 27  1  0  0  0
 26 27  1  0  0  0
 19 20  1  0  0  0
  8 10  1  0  0  0
 27 28  1  0  0  0
M  CHG 1  27   1
M  END
> <minimizedAffinity>
-6.62156

> <CNNscore>
0.4901621640

> <CNNaffinity>
6.4358625412

> <CNN_VS>
3.1546163559

> <CNNaffinity_variance>
0.1466993988

$$$$



 28 30  0  0  0  0  0  0  0  0999 V2000
   10.3515   -0.1007   57.8991 C   0  0  0  0  0  0  0  0  0  0  0  0
   11.1667   -0.0946   56.7673 C   0  0  0  0  0  0  0  0  0  0  0  0
   10.9233   -0.1508   59.1703 C   0  0  0  0  0  0  0  0  0  0  0  0
   12.5539   -0.1386   56.9069 C   0  0  0  0  0  0  0  0  0  0  0  0
   12.3105   -0.1947   59.3098 C   0  0  0  0  0  0  0  0  0  0  0  0
   13.1258   -0.1887   58.1781 C   0  0  0  0  0  0  0  0  0  0  0  0
   15.3855    0.8102   58.6450 C   0  0  0  0  0  0  0  0  0  0  0  0
   14.5172   -0.2324   58.2971 N   0  0  0  0  0  0  0  0  0  0  0  0
   15.0816    1.9664   58.9135 O   0  0  0  0  0  0  0  0  0  0  0  0
   14.9571   -1.1399   58.1063 H   0  0  0  0  0  0  0  0  0  0  0  0
   17.3945   -0.0678   57.5325 C   0  0  0  0  0  0  0  0  0  0  0  0
   16.8102    0.3569   58.6626 C   0  0  0  0  0  0  0  0  0  0  0  0
   21.4199   -1.4458   57.2614 C   0  0  0  0  0  0  0  0  0  0  0  0
   20.8747   -0.6786   56.2321 C   0  0  0  0  0  0  0  0  0  0  0  0
   20.6480   -1.7622   58.3794 C   0  0  0  0  0  0  0  0  0  0  0  0
   19.5578   -0.2276   56.3205 C   0  0  0  0  0  0  0  0  0  0  0  0
   19.3310   -1.3112   58.4679 C   0  0  0  0  0  0  0  0  0  0  0  0
   18.7858   -0.5439   57.4384 C   0  0  0  0  0  0  0  0  0  0  0  0
   12.9006   -0.2484   60.6964 C   0  0  0  0  0  0  0  0  0  0  0  0
   11.8160   -0.4489   61.7534 C   0  0  0  0  0  0  0  0  0  0  0  0
   10.9582    0.6157   64.6408 C   0  0  0  0  0  0  0  0  0  0  0  0
    9.4453    0.4859   64.5171 C   0  0  0  0  0  0  0  0  0  0  0  0
   11.5448    1.4128   63.4804 C   0  0  0  0  0  0  0  0  0  0  0  0
    9.0336   -0.0925   63.1724 C   0  0  0  0  0  0  0  0  0  0  0  0
   11.1369    0.8738   62.1065 C   0  0  0  0  0  0  0  0  0  0  0  0
    8.9014    2.0053   61.7891 C   0  0  0  0  0  0  0  0  0  0  0  0
    9.6257    0.7039   62.0311 N   0  0  0  0  0  0  0  0  0  0  0  0
    9.4497    0.1331   61.1530 H   0  0  0  0  0  0  0  0  0  0  0  0
 13 14  1  0  0  0
 13 15  2  0  0  0
 14 16  2  0  0  0
 15 17  1  0  0  0
  1  2  1  0  0  0
  1  3  2  0  0  0
  2  4  2  0  0  0
 16 18  1  0  0  0
 17 18  2  0  0  0
  3  5  1  0  0  0
  4  6  1  0  0  0
 18 11  1  0  0  0
  5  6  2  0  0  0
  5 19  1  0  0  0
  6  8  1  0  0  0
 11 12  2  0  0  0
 12  7  1  0  0  0
  7  8  1  0  0  0
  7  9  2  0  0  0
 21 22  1  0  0  0
 21 23  1  0  0  0
 22 24  1  0  0  0
 23 25  1  0  0  0
 24 27  1  0  0  0
 25 20  1  0  0  0
 25 27  1  0  0  0
 26 27  1  0  0  0
 19 20  1  0  0  0
  8 10  1  0  0  0
 27 28  1  0  0  0
M  CHG 1  27   1
M  END
> <minimizedAffinity>
-9.38385

> <CNNscore>
0.4666365981

> <CNNaffinity>
6.3774733543

> <CNN_VS>
2.9759624004

> <CNNaffinity_variance>
0.0445542112

$$$$



 28 30  0  0  0  0  0  0  0  0999 V2000
   11.9715    3.7440   59.4711 C   0  0  0  0  0  0  0  0  0  0  0  0
   10.9953    3.6663   60.4643 C   0  0  0  0  0  0  0  0  0  0  0  0
   12.3217    2.6047   58.7465 C   0  0  0  0  0  0  0  0  0  0  0  0
   10.3692    2.4491   60.7330 C   0  0  0  0  0  0  0  0  0  0  0  0
   11.6955    1.3876   59.0152 C   0  0  0  0  0  0  0  0  0  0  0  0
   10.7194    1.3097   60.0085 C   0  0  0  0  0  0  0  0  0  0  0  0
   10.6212   -1.0352   60.9105 C   0  0  0  0  0  0  0  0  0  0  0  0
   10.0810    0.0998   60.2925 N   0  0  0  0  0  0  0  0  0  0  0  0
   11.7664   -1.1779   61.3220 O   0  0  0  0  0  0  0  0  0  0  0  0
    9.0952    0.0347   60.0142 H   0  0  0  0  0  0  0  0  0  0  0  0
    8.6653   -2.0677   61.9842 C   0  0  0  0  0  0  0  0  0  0  0  0
    9.6092   -2.1289   61.0332 C   0  0  0  0  0  0  0  0  0  0  0  0
    5.6647   -5.0311   62.6093 C   0  0  0  0  0  0  0  0  0  0  0  0
    5.8345   -4.4666   61.3453 C   0  0  0  0  0  0  0  0  0  0  0  0
    6.4766   -4.6260   63.6689 C   0  0  0  0  0  0  0  0  0  0  0  0
    6.8162   -3.4971   61.1405 C   0  0  0  0  0  0  0  0  0  0  0  0
    7.4583   -3.6564   63.4641 C   0  0  0  0  0  0  0  0  0  0  0  0
    7.6281   -3.0919   62.1999 C   0  0  0  0  0  0  0  0  0  0  0  0
   12.0944    0.1726   58.2162 C   0  0  0  0  0  0  0  0  0  0  0  0
   13.5984    0.1539   57.9487 C   0  0  0  0  0  0  0  0  0  0  0  0
   16.7230    0.7908   58.1415 C   0  0  0  0  0  0  0  0  0  0  0  0
   17.1597   -0.3624   59.0360 C   0  0  0  0  0  0  0  0  0  0  0  0
   15.5649    1.5668   58.7601 C   0  0  0  0  0  0  0  0  0  0  0  0
   15.9973   -1.2757   59.3921 C   0  0  0  0  0  0  0  0  0  0  0  0
   14.3805    0.6792   59.1520 C   0  0  0  0  0  0  0  0  0  0  0  0
   15.1066   -0.1122   61.4378 C   0  0  0  0  0  0  0  0  0  0  0  0
   14.8544   -0.4934   59.9998 N   0  0  0  0  0  0  0  0  0  0  0  0
   14.0307   -1.1623   60.0414 H   0  0  0  0  0  0  0  0  0  0  0  0
 13 14  1  0  0  0
 13 15  2  0  0  0
 14 16  2  0  0  0
 15 17  1  0  0  0
  1  2  1  0  0  0
  1  3  2  0  0  0
  2  4  2  0  0  0
 16 18  1  0  0  0
 17 18  2  0  0  0
  3  5  1  0  0  0
  4  6  1  0  0  0
 18 11  1  0  0  0
  5  6  2  0  0  0
  5 19  1  0  0  0
  6  8  1  0  0  0
 11 12  2  0  0  0
 12  7  1  0  0  0
  7  8  1  0  0  0
  7  9  2  0  0  0
 21 22  1  0  0  0
 21 23  1  0  0  0
 22 24  1  0  0  0
 23 25  1  0  0  0
 24 27  1  0  0  0
 25 20  1  0  0  0
 25 27  1  0  0  0
 26 27  1  0  0  0
 19 20  1  0  0  0
  8 10  1  0  0  0
 27 28  1  0  0  0
M  CHG 1  27   1
M  END
> <minimizedAffinity>
-7.80393

> <CNNscore>
0.3764389455

> <CNNaffinity>
6.2908816338

> <CNN_VS>
2.3681328297

> <CNNaffinity_variance>
0.1630378515

$$$$



 28 30  0  0  0  0  0  0  0  0999 V2000
   10.3634   -0.9021   56.0905 C   0  0  0  0  0  0  0  0  0  0  0  0
   11.0825   -1.3422   54.9792 C   0  0  0  0  0  0  0  0  0  0  0  0
   11.0365   -0.3760   57.1931 C   0  0  0  0  0  0  0  0  0  0  0  0
   12.4747   -1.2562   54.9707 C   0  0  0  0  0  0  0  0  0  0  0  0
   12.4287   -0.2899   57.1845 C   0  0  0  0  0  0  0  0  0  0  0  0
   13.1478   -0.7301   56.0733 C   0  0  0  0  0  0  0  0  0  0  0  0
   15.3404    0.2828   55.3742 C   0  0  0  0  0  0  0  0  0  0  0  0
   14.5426   -0.6524   56.0457 N   0  0  0  0  0  0  0  0  0  0  0  0
   14.9581    1.2171   54.6799 O   0  0  0  0  0  0  0  0  0  0  0  0
   15.0440   -1.3684   56.5835 H   0  0  0  0  0  0  0  0  0  0  0  0
   17.2357   -0.3497   56.8068 C   0  0  0  0  0  0  0  0  0  0  0  0
   16.7962    0.0239   55.5959 C   0  0  0  0  0  0  0  0  0  0  0  0
   21.3154   -1.1337   57.7646 C   0  0  0  0  0  0  0  0  0  0  0  0
   20.9835   -0.5795   56.5285 C   0  0  0  0  0  0  0  0  0  0  0  0
   20.3126   -1.4315   58.6873 C   0  0  0  0  0  0  0  0  0  0  0  0
   19.6489   -0.3228   56.2149 C   0  0  0  0  0  0  0  0  0  0  0  0
   18.9778   -1.1749   58.3737 C   0  0  0  0  0  0  0  0  0  0  0  0
   18.6459   -0.6206   57.1375 C   0  0  0  0  0  0  0  0  0  0  0  0
   13.1294    0.2832   58.3904 C   0  0  0  0  0  0  0  0  0  0  0  0
   12.5351   -0.2616   59.6880 C   0  0  0  0  0  0  0  0  0  0  0  0
   10.7951   -0.4331   62.3619 C   0  0  0  0  0  0  0  0  0  0  0  0
    9.5307    0.2698   61.8843 C   0  0  0  0  0  0  0  0  0  0  0  0
   12.0356    0.4146   62.0995 C   0  0  0  0  0  0  0  0  0  0  0  0
    9.6296    0.6855   60.4249 C   0  0  0  0  0  0  0  0  0  0  0  0
   12.1616    0.8711   60.6435 C   0  0  0  0  0  0  0  0  0  0  0  0
   10.7168    2.9425   60.6609 C   0  0  0  0  0  0  0  0  0  0  0  0
   10.8658    1.5209   60.1776 N   0  0  0  0  0  0  0  0  0  0  0  0
   10.9563    1.6056   59.1229 H   0  0  0  0  0  0  0  0  0  0  0  0
 13 14  1  0  0  0
 13 15  2  0  0  0
 14 16  2  0  0  0
 15 17  1  0  0  0
  1  2  1  0  0  0
  1  3  2  0  0  0
  2  4  2  0  0  0
 16 18  1  0  0  0
 17 18  2  0  0  0
  3  5  1  0  0  0
  4  6  1  0  0  0
 18 11  1  0  0  0
  5  6  2  0  0  0
  5 19  1  0  0  0
  6  8  1  0  0  0
 11 12  2  0  0  0
 12  7  1  0  0  0
  7  8  1  0  0  0
  7  9  2  0  0  0
 21 22  1  0  0  0
 21 23  1  0  0  0
 22 24  1  0  0  0
 23 25  1  0  0  0
 24 27  1  0  0  0
 25 20  1  0  0  0
 25 27  1  0  0  0
 26 27  1  0  0  0
 19 20  1  0  0  0
  8 10  1  0  0  0
 27 28  1  0  0  0
M  CHG 1  27   1
M  END
> <minimizedAffinity>
-8.76153

> <CNNscore>
0.3638583124

> <CNNaffinity>
6.3529691696

> <CNN_VS>
2.3115806580

> <CNNaffinity_variance>
0.0328649096

$$$$



 28 30  0  0  0  0  0  0  0  0999 V2000
   10.0992   -0.1122   60.4240 C   0  0  0  0  0  0  0  0  0  0  0  0
   10.9780   -0.6338   61.3733 C   0  0  0  0  0  0  0  0  0  0  0  0
   10.5954    0.4382   59.2422 C   0  0  0  0  0  0  0  0  0  0  0  0
   12.3531   -0.6051   61.1408 C   0  0  0  0  0  0  0  0  0  0  0  0
   11.9704    0.4669   59.0098 C   0  0  0  0  0  0  0  0  0  0  0  0
   12.8493   -0.0547   59.9590 C   0  0  0  0  0  0  0  0  0  0  0  0
   15.2495    0.0409   60.7019 C   0  0  0  0  0  0  0  0  0  0  0  0
   14.2298   -0.0349   59.7447 N   0  0  0  0  0  0  0  0  0  0  0  0
   15.1177    0.1035   61.9185 O   0  0  0  0  0  0  0  0  0  0  0  0
   14.5340   -0.0818   58.7656 H   0  0  0  0  0  0  0  0  0  0  0  0
   16.8189   -0.6763   58.9506 C   0  0  0  0  0  0  0  0  0  0  0  0
   16.6026    0.0366   60.0659 C   0  0  0  0  0  0  0  0  0  0  0  0
   20.5599   -0.9152   56.9200 C   0  0  0  0  0  0  0  0  0  0  0  0
   19.4877   -0.2463   56.3298 C   0  0  0  0  0  0  0  0  0  0  0  0
   20.4081   -1.5059   58.1745 C   0  0  0  0  0  0  0  0  0  0  0  0
   18.2636   -0.1681   56.9939 C   0  0  0  0  0  0  0  0  0  0  0  0
   19.1840   -1.4276   58.8387 C   0  0  0  0  0  0  0  0  0  0  0  0
   18.1117   -0.7587   58.2484 C   0  0  0  0  0  0  0  0  0  0  0  0
   12.4781    1.0681   57.7235 C   0  0  0  0  0  0  0  0  0  0  0  0
   12.1187    0.1942   56.5230 C   0  0  0  0  0  0  0  0  0  0  0  0
   14.8685    0.7317   54.9881 C   0  0  0  0  0  0  0  0  0  0  0  0
   14.5765   -0.0020   53.6853 C   0  0  0  0  0  0  0  0  0  0  0  0
   14.6261   -0.1650   56.1978 C   0  0  0  0  0  0  0  0  0  0  0  0
   13.1781   -0.5991   53.6716 C   0  0  0  0  0  0  0  0  0  0  0  0
   13.2341   -0.8027   56.2111 C   0  0  0  0  0  0  0  0  0  0  0  0
   13.6180   -2.8284   54.7525 C   0  0  0  0  0  0  0  0  0  0  0  0
   12.9493   -1.4817   54.8784 N   0  0  0  0  0  0  0  0  0  0  0  0
   11.9100   -1.6995   54.8894 H   0  0  0  0  0  0  0  0  0  0  0  0
 13 14  1  0  0  0
 13 15  2  0  0  0
 14 16  2  0  0  0
 15 17  1  0  0  0
  1  2  1  0  0  0
  1  3  2  0  0  0
  2  4  2  0  0  0
 16 18  1  0  0  0
 17 18  2  0  0  0
  3  5  1  0  0  0
  4  6  1  0  0  0
 18 11  1  0  0  0
  5  6  2  0  0  0
  5 19  1  0  0  0
  6  8  1  0  0  0
 11 12  2  0  0  0
 12  7  1  0  0  0
  7  8  1  0  0  0
  7  9  2  0  0  0
 21 22  1  0  0  0
 21 23  1  0  0  0
 22 24  1  0  0  0
 23 25  1  0  0  0
 24 27  1  0  0  0
 25 20  1  0  0  0
 25 27  1  0  0  0
 26 27  1  0  0  0
 19 20  1  0  0  0
  8 10  1  0  0  0
 27 28  1  0  0  0
M  CHG 1  27   1
M  END
> <minimizedAffinity>
-9.98354

> <CNNscore>
0.3357473612

> <CNNaffinity>
6.4480199814

> <CNN_VS>
2.1649057865

> <CNNaffinity_variance>
0.1552915275

$$$$



 28 30  0  0  0  0  0  0  0  0999 V2000
    5.1205   -5.3328   63.0269 C   0  0  0  0  0  0  0  0  0  0  0  0
    4.5851   -5.0587   61.7684 C   0  0  0  0  0  0  0  0  0  0  0  0
    6.3762   -4.8346   63.3742 C   0  0  0  0  0  0  0  0  0  0  0  0
    5.3054   -4.2863   60.8572 C   0  0  0  0  0  0  0  0  0  0  0  0
    7.0965   -4.0622   62.4630 C   0  0  0  0  0  0  0  0  0  0  0  0
    6.5612   -3.7881   61.2045 C   0  0  0  0  0  0  0  0  0  0  0  0
    7.1955   -3.0690   58.8802 C   0  0  0  0  0  0  0  0  0  0  0  0
    7.2673   -3.0166   60.2780 N   0  0  0  0  0  0  0  0  0  0  0  0
    6.4911   -3.8090   58.2037 O   0  0  0  0  0  0  0  0  0  0  0  0
    7.9184   -2.3268   60.6699 H   0  0  0  0  0  0  0  0  0  0  0  0
    8.8010   -1.2114   59.0067 C   0  0  0  0  0  0  0  0  0  0  0  0
    8.1139   -2.0752   58.2445 C   0  0  0  0  0  0  0  0  0  0  0  0
   11.4696    1.7525   57.5002 C   0  0  0  0  0  0  0  0  0  0  0  0
   11.5052    0.4564   56.9863 C   0  0  0  0  0  0  0  0  0  0  0  0
   10.5610    2.0789   58.5070 C   0  0  0  0  0  0  0  0  0  0  0  0
   10.6323   -0.5135   57.4790 C   0  0  0  0  0  0  0  0  0  0  0  0
    9.6879    1.1090   58.9997 C   0  0  0  0  0  0  0  0  0  0  0  0
    9.7235   -0.1873   58.4857 C   0  0  0  0  0  0  0  0  0  0  0  0
    8.4514   -3.5372   62.8659 C   0  0  0  0  0  0  0  0  0  0  0  0
    8.3663   -2.0862   63.3366 C   0  0  0  0  0  0  0  0  0  0  0  0
    6.9224    0.1504   65.1026 C   0  0  0  0  0  0  0  0  0  0  0  0
    8.1492    0.8503   65.6736 C   0  0  0  0  0  0  0  0  0  0  0  0
    6.9752   -1.3538   65.3491 C   0  0  0  0  0  0  0  0  0  0  0  0
    9.4425    0.2405   65.1560 C   0  0  0  0  0  0  0  0  0  0  0  0
    8.2723   -2.0037   64.8597 C   0  0  0  0  0  0  0  0  0  0  0  0
    9.7901   -1.5992   66.8372 C   0  0  0  0  0  0  0  0  0  0  0  0
    9.4797   -1.2513   65.4022 N   0  0  0  0  0  0  0  0  0  0  0  0
   10.3109   -1.6185   64.8526 H   0  0  0  0  0  0  0  0  0  0  0  0
 13 14  1  0  0  0
 13 15  2  0  0  0
 14 16  2  0  0  0
 15 17  1  0  0  0
  1  2  1  0  0  0
  1  3  2  0  0  0
  2  4  2  0  0  0
 16 18  1  0  0  0
 17 18  2  0  0  0
  3  5  1  0  0  0
  4  6  1  0  0  0
 18 11  1  0  0  0
  5  6  2  0  0  0
  5 19  1  0  0  0
  6  8  1  0  0  0
 11 12  2  0  0  0
 12  7  1  0  0  0
  7  8  1  0  0  0
  7  9  2  0  0  0
 21 22  1  0  0  0
 21 23  1  0  0  0
 22 24  1  0  0  0
 23 25  1  0  0  0
 24 27  1  0  0  0
 25 20  1  0  0  0
 25 27  1  0  0  0
 26 27  1  0  0  0
 19 20  1  0  0  0
  8 10  1  0  0  0
 27 28  1  0  0  0
M  CHG 1  27   1
M  END
> <minimizedAffinity>
-8.40986

> <CNNscore>
0.2730806470

> <CNNaffinity>
5.9223546982

> <CNN_VS>
1.6172804832

> <CNNaffinity_variance>
0.2368068248

$$$$



 28 30  0  0  0  0  0  0  0  0999 V2000
    9.6076    0.8090   64.1377 C   0  0  0  0  0  0  0  0  0  0  0  0
   10.9271    1.1255   64.4605 C   0  0  0  0  0  0  0  0  0  0  0  0
    9.3118    0.2240   62.9065 C   0  0  0  0  0  0  0  0  0  0  0  0
   11.9509    0.8570   63.5519 C   0  0  0  0  0  0  0  0  0  0  0  0
   10.3355   -0.0447   61.9981 C   0  0  0  0  0  0  0  0  0  0  0  0
   11.6551    0.2719   62.3207 C   0  0  0  0  0  0  0  0  0  0  0  0
   13.9844   -0.4529   61.7116 C   0  0  0  0  0  0  0  0  0  0  0  0
   12.6944    0.0109   61.4241 N   0  0  0  0  0  0  0  0  0  0  0  0
   14.4449   -0.7195   62.8153 O   0  0  0  0  0  0  0  0  0  0  0  0
   12.4870    0.1795   60.4332 H   0  0  0  0  0  0  0  0  0  0  0  0
   15.8131    0.2421   60.2224 C   0  0  0  0  0  0  0  0  0  0  0  0
   14.8035   -0.6055   60.4702 C   0  0  0  0  0  0  0  0  0  0  0  0
   18.3083    0.0893   56.7690 C   0  0  0  0  0  0  0  0  0  0  0  0
   18.4948   -0.8258   57.8050 C   0  0  0  0  0  0  0  0  0  0  0  0
   17.3055    1.0543   56.8629 C   0  0  0  0  0  0  0  0  0  0  0  0
   17.6786   -0.7760   58.9349 C   0  0  0  0  0  0  0  0  0  0  0  0
   16.4892    1.1042   57.9929 C   0  0  0  0  0  0  0  0  0  0  0  0
   16.6757    0.1890   59.0290 C   0  0  0  0  0  0  0  0  0  0  0  0
    9.9861   -0.6776   60.6748 C   0  0  0  0  0  0  0  0  0  0  0  0
    8.6522   -1.4186   60.7495 C   0  0  0  0  0  0  0  0  0  0  0  0
    6.7282   -3.9563   60.4955 C   0  0  0  0  0  0  0  0  0  0  0  0
    6.1381   -3.9657   61.9000 C   0  0  0  0  0  0  0  0  0  0  0  0
    8.2527   -3.9317   60.5329 C   0  0  0  0  0  0  0  0  0  0  0  0
    6.6615   -2.8135   62.7429 C   0  0  0  0  0  0  0  0  0  0  0  0
    8.8203   -2.7964   61.3892 C   0  0  0  0  0  0  0  0  0  0  0  0
    8.7540   -3.8451   63.6857 C   0  0  0  0  0  0  0  0  0  0  0  0
    8.1736   -2.7977   62.7676 N   0  0  0  0  0  0  0  0  0  0  0  0
    8.4500   -1.8725   63.2095 H   0  0  0  0  0  0  0  0  0  0  0  0
 13 14  1  0  0  0
 13 15  2  0  0  0
 14 16  2  0  0  0
 15 17  1  0  0  0
  1  2  1  0  0  0
  1  3  2  0  0  0
  2  4  2  0  0  0
 16 18  1  0  0  0
 17 18  2  0  0  0
  3  5  1  0  0  0
  4  6  1  0  0  0
 18 11  1  0  0  0
  5  6  2  0  0  0
  5 19  1  0  0  0
  6  8  1  0  0  0
 11 12  2  0  0  0
 12  7  1  0  0  0
  7  8  1  0  0  0
  7  9  2  0  0  0
 21 22  1  0  0  0
 21 23  1  0  0  0
 22 24  1  0  0  0
 23 25  1  0  0  0
 24 27  1  0  0  0
 25 20  1  0  0  0
 25 27  1  0  0  0
 26 27  1  0  0  0
 19 20  1  0  0  0
  8 10  1  0  0  0
 27 28  1  0  0  0
M  CHG 1  27   1
M  END
> <minimizedAffinity>
-8.30183

> <CNNscore>
0.2590923309

> <CNNaffinity>
5.9572763443

> <CNN_VS>
1.5434845686

> <CNNaffinity_variance>
0.1038358212

$$$$



 33 37  0  0  0  0  0  0  0  0999 V2000
   12.8679   -0.0277   62.2316 C   0  0  0  0  0  0  0  0  0  0  0  0
   13.5268    0.9112   58.5859 C   0  0  0  0  0  0  0  0  0  0  0  0
   15.4776   -0.3658   59.4571 C   0  0  0  0  0  0  0  0  0  0  0  0
   12.7075    0.4813   59.7953 C   0  0  0  0  0  0  0  0  0  0  0  0
   14.6552   -0.7887   60.6677 C   0  0  0  0  0  0  0  0  0  0  0  0
   14.6044   -0.0513   58.3218 N   0  0  0  0  0  0  0  0  0  0  0  0
   13.6283    0.2720   60.9706 N   0  0  0  0  0  0  0  0  0  0  0  0
   14.1311    1.1552   61.1346 H   0  0  0  0  0  0  0  0  0  0  0  0
   16.9973    0.1981   55.5385 C   0  0  0  0  0  0  0  0  0  0  0  0
   16.4495    0.2439   56.8125 C   0  0  0  0  0  0  0  0  0  0  0  0
   16.2258   -0.2041   54.4464 C   0  0  0  0  0  0  0  0  0  0  0  0
   12.9302   -0.9331   55.8951 C   0  0  0  0  0  0  0  0  0  0  0  0
   12.5045   -1.2621   54.6300 C   0  0  0  0  0  0  0  0  0  0  0  0
   14.3057   -0.5249   55.9330 C   0  0  0  0  0  0  0  0  0  0  0  0
   15.1144   -0.1128   57.0198 C   0  0  0  0  0  0  0  0  0  0  0  0
   14.8802   -0.5631   54.6588 C   0  0  0  0  0  0  0  0  0  0  0  0
   13.7436   -1.0872   53.4728 S   0  0  0  0  0  0  0  0  0  0  0  0
   11.4785    0.5844   62.1332 C   0  0  0  0  0  0  0  0  0  0  0  0
   10.6195    0.1900   63.3323 C   0  0  0  0  0  0  0  0  0  0  0  0
   11.3133    0.5065   64.6495 C   0  0  0  0  0  0  0  0  0  0  0  0
   10.5611   -0.0606   65.7131 O   0  0  0  0  0  0  0  0  0  0  0  0
    7.3336   -1.7476   65.2520 C   0  0  0  0  0  0  0  0  0  0  0  0
    8.6968   -1.5446   65.4771 C   0  0  0  0  0  0  0  0  0  0  0  0
    8.3873    0.8453   65.2790 C   0  0  0  0  0  0  0  0  0  0  0  0
    6.4903   -0.6535   65.0389 C   0  0  0  0  0  0  0  0  0  0  0  0
    7.0248    0.6402   65.0539 C   0  0  0  0  0  0  0  0  0  0  0  0
    9.2220   -0.2517   65.4906 C   0  0  0  0  0  0  0  0  0  0  0  0
    5.0591   -0.8243   64.8000 C   0  0  0  0  0  0  0  0  0  0  0  0
    4.2703    0.2373   64.5984 C   0  0  0  0  0  0  0  0  0  0  0  0
    4.8194    1.6209   64.6105 C   0  0  0  0  0  0  0  0  0  0  0  0
    6.1762    1.7416   64.8396 N   0  0  0  0  0  0  0  0  0  0  0  0
    4.0721    2.5784   64.4210 O   0  0  0  0  0  0  0  0  0  0  0  0
    6.5819    2.6730   64.8542 H   0  0  0  0  0  0  0  0  0  0  0  0
  9 10  2  0  0  0
  9 11  1  0  0  0
 22 23  2  0  0  0
 22 25  1  0  0  0
 10 15  1  0  0  0
 23 27  1  0  0  0
 11 16  2  0  0  0
 12 13  2  0  0  0
 12 14  1  0  0  0
 24 26  1  0  0  0
 24 27  2  0  0  0
 13 17  1  0  0  0
 14 15  2  0  0  0
 14 16  1  0  0  0
 25 26  2  0  0  0
 25 28  1  0  0  0
 15  6  1  0  0  0
 26 31  1  0  0  0
 27 21  1  0  0  0
 16 17  1  0  0  0
 28 29  2  0  0  0
 29 30  1  0  0  0
 30 31  1  0  0  0
 30 32  2  0  0  0
  2  4  1  0  0  0
  2  6  1  0  0  0
  3  5  1  0  0  0
  3  6  1  0  0  0
  4  7  1  0  0  0
  5  7  1  0  0  0
 18 19  1  0  0  0
 18  1  1  0  0  0
 19 20  1  0  0  0
  1  7  1  0  0  0
 20 21  1  0  0  0
 31 33  1  0  0  0
  7  8  1  0  0  0
M  CHG 1   7   1
M  END
> <minimizedAffinity>
-9.75263

> <CNNscore>
0.7883344889

> <CNNaffinity>
7.1977586746

> <CNN_VS>
5.6742415428

> <CNNaffinity_variance>
0.0316726230

$$$$



 33 37  0  0  0  0  0  0  0  0999 V2000
   12.3508    0.0583   61.8743 C   0  0  0  0  0  0  0  0  0  0  0  0
   14.2744    1.2209   58.7831 C   0  0  0  0  0  0  0  0  0  0  0  0
   15.7310   -0.2908   60.1206 C   0  0  0  0  0  0  0  0  0  0  0  0
   13.0664    0.7715   59.5940 C   0  0  0  0  0  0  0  0  0  0  0  0
   14.5200   -0.7331   60.9322 C   0  0  0  0  0  0  0  0  0  0  0  0
   15.3204    0.1897   58.7974 N   0  0  0  0  0  0  0  0  0  0  0  0
   13.5139    0.3879   60.9816 N   0  0  0  0  0  0  0  0  0  0  0  0
   13.9794    1.2067   61.3972 H   0  0  0  0  0  0  0  0  0  0  0  0
   16.7343    0.7551   55.4484 C   0  0  0  0  0  0  0  0  0  0  0  0
   15.8532    0.7370   56.5202 C   0  0  0  0  0  0  0  0  0  0  0  0
   18.0198    0.2252   55.5752 C   0  0  0  0  0  0  0  0  0  0  0  0
   18.1598   -0.9705   59.0454 C   0  0  0  0  0  0  0  0  0  0  0  0
   19.4490   -1.3788   58.7980 C   0  0  0  0  0  0  0  0  0  0  0  0
   17.5389   -0.3592   57.9048 C   0  0  0  0  0  0  0  0  0  0  0  0
   16.2422    0.1863   57.7442 C   0  0  0  0  0  0  0  0  0  0  0  0
   18.4088   -0.3293   56.8105 C   0  0  0  0  0  0  0  0  0  0  0  0
   19.9326   -1.0362   57.1999 S   0  0  0  0  0  0  0  0  0  0  0  0
   11.1184   -0.1879   61.0166 C   0  0  0  0  0  0  0  0  0  0  0  0
   10.4560   -1.5155   61.3771 C   0  0  0  0  0  0  0  0  0  0  0  0
    9.0783   -1.6468   60.7436 C   0  0  0  0  0  0  0  0  0  0  0  0
    8.8442   -3.0130   60.4317 O   0  0  0  0  0  0  0  0  0  0  0  0
    5.3929   -4.2064   60.0587 C   0  0  0  0  0  0  0  0  0  0  0  0
    6.6532   -3.6929   59.7457 C   0  0  0  0  0  0  0  0  0  0  0  0
    7.3098   -3.8528   62.0673 C   0  0  0  0  0  0  0  0  0  0  0  0
    5.0851   -4.5455   61.3793 C   0  0  0  0  0  0  0  0  0  0  0  0
    6.0492   -4.3658   62.3782 C   0  0  0  0  0  0  0  0  0  0  0  0
    7.6090   -3.5168   60.7472 C   0  0  0  0  0  0  0  0  0  0  0  0
    3.7782   -5.0853   61.7471 C   0  0  0  0  0  0  0  0  0  0  0  0
    3.5052   -5.4032   63.0177 C   0  0  0  0  0  0  0  0  0  0  0  0
    4.5166   -5.2194   64.0942 C   0  0  0  0  0  0  0  0  0  0  0  0
    5.7398   -4.7072   63.7074 N   0  0  0  0  0  0  0  0  0  0  0  0
    4.2387   -5.5186   65.2537 O   0  0  0  0  0  0  0  0  0  0  0  0
    6.4520   -4.5699   64.4188 H   0  0  0  0  0  0  0  0  0  0  0  0
  9 10  2  0  0  0
  9 11  1  0  0  0
 22 23  2  0  0  0
 22 25  1  0  0  0
 10 15  1  0  0  0
 23 27  1  0  0  0
 11 16  2  0  0  0
 12 13  2  0  0  0
 12 14  1  0  0  0
 24 26  1  0  0  0
 24 27  2  0  0  0
 13 17  1  0  0  0
 14 15  2  0  0  0
 14 16  1  0  0  0
 25 26  2  0  0  0
 25 28  1  0  0  0
 15  6  1  0  0  0
 26 31  1  0  0  0
 27 21  1  0  0  0
 16 17  1  0  0  0
 28 29  2  0  0  0
 29 30  1  0  0  0
 30 31  1  0  0  0
 30 32  2  0  0  0
  2  4  1  0  0  0
  2  6  1  0  0  0
  3  5  1  0  0  0
  3  6  1  0  0  0
  4  7  1  0  0  0
  5  7  1  0  0  0
 18 19  1  0  0  0
 18  1  1  0  0  0
 19 20  1  0  0  0
  1  7  1  0  0  0
 20 21  1  0  0  0
 31 33  1  0  0  0
  7  8  1  0  0  0
M  CHG 1   7   1
M  END
> <minimizedAffinity>
-9.03805

> <CNNscore>
0.7708721161

> <CNNaffinity>
6.7548623085

> <CNN_VS>
5.2071352005

> <CNNaffinity_variance>
0.0489299111

$$$$



 33 37  0  0  0  0  0  0  0  0999 V2000
   13.2662   -0.1437   62.0334 C   0  0  0  0  0  0  0  0  0  0  0  0
   14.6321    0.2944   58.4909 C   0  0  0  0  0  0  0  0  0  0  0  0
   16.4674    0.7049   60.1214 C   0  0  0  0  0  0  0  0  0  0  0  0
   13.7853   -0.3152   59.6000 C   0  0  0  0  0  0  0  0  0  0  0  0
   15.6141    0.0988   61.2284 C   0  0  0  0  0  0  0  0  0  0  0  0
   16.0614    0.1859   58.8114 N   0  0  0  0  0  0  0  0  0  0  0  0
   14.1567    0.3207   60.9155 N   0  0  0  0  0  0  0  0  0  0  0  0
   14.0081    1.3354   60.8248 H   0  0  0  0  0  0  0  0  0  0  0  0
   17.4714    0.9420   55.4985 C   0  0  0  0  0  0  0  0  0  0  0  0
   16.6034    0.8899   56.5798 C   0  0  0  0  0  0  0  0  0  0  0  0
   18.7201    0.3202   55.5581 C   0  0  0  0  0  0  0  0  0  0  0  0
   18.8198   -1.1745   58.9117 C   0  0  0  0  0  0  0  0  0  0  0  0
   20.0760   -1.6436   58.6087 C   0  0  0  0  0  0  0  0  0  0  0  0
   18.2280   -0.4286   57.8377 C   0  0  0  0  0  0  0  0  0  0  0  0
   16.9688    0.2123   57.7460 C   0  0  0  0  0  0  0  0  0  0  0  0
   19.0854   -0.3622   56.7352 C   0  0  0  0  0  0  0  0  0  0  0  0
   20.5631   -1.1980   57.0373 S   0  0  0  0  0  0  0  0  0  0  0  0
   12.0191   -0.7852   61.4435 C   0  0  0  0  0  0  0  0  0  0  0  0
   10.7934    0.0994   61.6588 C   0  0  0  0  0  0  0  0  0  0  0  0
    9.6093   -0.3678   60.8244 C   0  0  0  0  0  0  0  0  0  0  0  0
    9.3144    0.6232   59.8498 O   0  0  0  0  0  0  0  0  0  0  0  0
   11.6807    2.0482   57.4323 C   0  0  0  0  0  0  0  0  0  0  0  0
   10.8012    1.9390   58.5114 C   0  0  0  0  0  0  0  0  0  0  0  0
   10.4262   -0.3915   57.9873 C   0  0  0  0  0  0  0  0  0  0  0  0
   11.9369    0.9365   56.6247 C   0  0  0  0  0  0  0  0  0  0  0  0
   11.3057   -0.2802   56.9088 C   0  0  0  0  0  0  0  0  0  0  0  0
   10.1758    0.7225   58.7882 C   0  0  0  0  0  0  0  0  0  0  0  0
   12.8503    1.0102   55.4868 C   0  0  0  0  0  0  0  0  0  0  0  0
   13.0810   -0.0666   54.7271 C   0  0  0  0  0  0  0  0  0  0  0  0
   12.4196   -1.3692   55.0127 C   0  0  0  0  0  0  0  0  0  0  0  0
   11.5635   -1.3993   56.0963 N   0  0  0  0  0  0  0  0  0  0  0  0
   12.6486   -2.3425   54.2975 O   0  0  0  0  0  0  0  0  0  0  0  0
   11.0963   -2.2739   56.3178 H   0  0  0  0  0  0  0  0  0  0  0  0
  9 10  2  0  0  0
  9 11  1  0  0  0
 22 23  2  0  0  0
 22 25  1  0  0  0
 10 15  1  0  0  0
 23 27  1  0  0  0
 11 16  2  0  0  0
 12 13  2  0  0  0
 12 14  1  0  0  0
 24 26  1  0  0  0
 24 27  2  0  0  0
 13 17  1  0  0  0
 14 15  2  0  0  0
 14 16  1  0  0  0
 25 26  2  0  0  0
 25 28  1  0  0  0
 15  6  1  0  0  0
 26 31  1  0  0  0
 27 21  1  0  0  0
 16 17  1  0  0  0
 28 29  2  0  0  0
 29 30  1  0  0  0
 30 31  1  0  0  0
 30 32  2  0  0  0
  2  4  1  0  0  0
  2  6  1  0  0  0
  3  5  1  0  0  0
  3  6  1  0  0  0
  4  7  1  0  0  0
  5  7  1  0  0  0
 18 19  1  0  0  0
 18  1  1  0  0  0
 19 20  1  0  0  0
  1  7  1  0  0  0
 20 21  1  0  0  0
 31 33  1  0  0  0
  7  8  1  0  0  0
M  CHG 1   7   1
M  END
> <minimizedAffinity>
-8.92237

> <CNNscore>
0.6730930805

> <CNNaffinity>
7.7539429665

> <CNN_VS>
5.2191252708

> <CNNaffinity_variance>
0.0975623354

$$$$



 33 37  0  0  0  0  0  0  0  0999 V2000
   12.7046   -0.1757   62.4858 C   0  0  0  0  0  0  0  0  0  0  0  0
   13.8772    0.4915   58.9099 C   0  0  0  0  0  0  0  0  0  0  0  0
   15.8632    0.3953   60.4072 C   0  0  0  0  0  0  0  0  0  0  0  0
   13.0189   -0.1139   60.0123 C   0  0  0  0  0  0  0  0  0  0  0  0
   14.9989   -0.2054   61.5086 C   0  0  0  0  0  0  0  0  0  0  0  0
   15.2869    0.1189   59.0875 N   0  0  0  0  0  0  0  0  0  0  0  0
   13.5811    0.2818   61.3540 N   0  0  0  0  0  0  0  0  0  0  0  0
   13.5985    1.3104   61.3943 H   0  0  0  0  0  0  0  0  0  0  0  0
   16.3759    0.7060   55.6228 C   0  0  0  0  0  0  0  0  0  0  0  0
   15.5953    0.6668   56.7693 C   0  0  0  0  0  0  0  0  0  0  0  0
   17.6845    0.2196   55.6361 C   0  0  0  0  0  0  0  0  0  0  0  0
   18.1742   -0.9455   59.0849 C   0  0  0  0  0  0  0  0  0  0  0  0
   19.4491   -1.3130   58.7247 C   0  0  0  0  0  0  0  0  0  0  0  0
   17.4337   -0.3633   58.0020 C   0  0  0  0  0  0  0  0  0  0  0  0
   16.1103    0.1381   57.9559 C   0  0  0  0  0  0  0  0  0  0  0  0
   18.2008   -0.3128   56.8340 C   0  0  0  0  0  0  0  0  0  0  0  0
   19.7761   -0.9664   57.0882 S   0  0  0  0  0  0  0  0  0  0  0  0
   11.6610    0.8938   62.7716 C   0  0  0  0  0  0  0  0  0  0  0  0
   11.0941    0.7438   64.1814 C   0  0  0  0  0  0  0  0  0  0  0  0
    9.6476    0.2710   64.1584 C   0  0  0  0  0  0  0  0  0  0  0  0
    9.6288   -1.1492   64.1219 O   0  0  0  0  0  0  0  0  0  0  0  0
    7.6832   -3.5026   62.0844 C   0  0  0  0  0  0  0  0  0  0  0  0
    8.2918   -2.9029   63.1890 C   0  0  0  0  0  0  0  0  0  0  0  0
    9.1743   -1.1548   61.7707 C   0  0  0  0  0  0  0  0  0  0  0  0
    7.8179   -2.9302   60.8164 C   0  0  0  0  0  0  0  0  0  0  0  0
    8.5653   -1.7559   60.6677 C   0  0  0  0  0  0  0  0  0  0  0  0
    9.0352   -1.7322   63.0325 C   0  0  0  0  0  0  0  0  0  0  0  0
    7.1967   -3.5270   59.6364 C   0  0  0  0  0  0  0  0  0  0  0  0
    7.3387   -2.9620   58.4320 C   0  0  0  0  0  0  0  0  0  0  0  0
    8.1294   -1.7135   58.2530 C   0  0  0  0  0  0  0  0  0  0  0  0
    8.7009   -1.1795   59.3916 N   0  0  0  0  0  0  0  0  0  0  0  0
    8.2448   -1.2163   57.1347 O   0  0  0  0  0  0  0  0  0  0  0  0
    9.2469   -0.3272   59.3029 H   0  0  0  0  0  0  0  0  0  0  0  0
  9 10  2  0  0  0
  9 11  1  0  0  0
 22 23  2  0  0  0
 22 25  1  0  0  0
 10 15  1  0  0  0
 23 27  1  0  0  0
 11 16  2  0  0  0
 12 13  2  0  0  0
 12 14  1  0  0  0
 24 26  1  0  0  0
 24 27  2  0  0  0
 13 17  1  0  0  0
 14 15  2  0  0  0
 14 16  1  0  0  0
 25 26  2  0  0  0
 25 28  1  0  0  0
 15  6  1  0  0  0
 26 31  1  0  0  0
 27 21  1  0  0  0
 16 17  1  0  0  0
 28 29  2  0  0  0
 29 30  1  0  0  0
 30 31  1  0  0  0
 30 32  2  0  0  0
  2  4  1  0  0  0
  2  6  1  0  0  0
  3  5  1  0  0  0
  3  6  1  0  0  0
  4  7  1  0  0  0
  5  7  1  0  0  0
 18 19  1  0  0  0
 18  1  1  0  0  0
 19 20  1  0  0  0
  1  7  1  0  0  0
 20 21  1  0  0  0
 31 33  1  0  0  0
  7  8  1  0  0  0
M  CHG 1   7   1
M  END
> <minimizedAffinity>
-9.22698

> <CNNscore>
0.5819647908

> <CNNaffinity>
7.1796770096

> <CNN_VS>
4.1783194542

> <CNNaffinity_variance>
0.0337098502

$$$$



 33 37  0  0  0  0  0  0  0  0999 V2000
   12.3568   -0.0713   62.0319 C   0  0  0  0  0  0  0  0  0  0  0  0
   13.9030    0.7861   58.6436 C   0  0  0  0  0  0  0  0  0  0  0  0
   15.7237    0.2141   60.2415 C   0  0  0  0  0  0  0  0  0  0  0  0
   12.8767    0.2083   59.6087 C   0  0  0  0  0  0  0  0  0  0  0  0
   14.6923   -0.3581   61.2057 C   0  0  0  0  0  0  0  0  0  0  0  0
   15.2215    0.1776   58.8643 N   0  0  0  0  0  0  0  0  0  0  0  0
   13.3811    0.3616   61.0211 N   0  0  0  0  0  0  0  0  0  0  0  0
   13.5495    1.3639   61.1856 H   0  0  0  0  0  0  0  0  0  0  0  0
   16.5787    0.7697   55.4964 C   0  0  0  0  0  0  0  0  0  0  0  0
   15.7137    0.7374   56.5809 C   0  0  0  0  0  0  0  0  0  0  0  0
   17.8727    0.2564   55.6030 C   0  0  0  0  0  0  0  0  0  0  0  0
   18.0792   -0.9458   59.0675 C   0  0  0  0  0  0  0  0  0  0  0  0
   19.3699   -1.3366   58.8002 C   0  0  0  0  0  0  0  0  0  0  0  0
   17.4337   -0.3399   57.9378 C   0  0  0  0  0  0  0  0  0  0  0  0
   16.1277    0.1889   57.7976 C   0  0  0  0  0  0  0  0  0  0  0  0
   18.2870   -0.2959   56.8309 C   0  0  0  0  0  0  0  0  0  0  0  0
   19.8255   -0.9837   57.1961 S   0  0  0  0  0  0  0  0  0  0  0  0
   11.0652    0.6965   61.7930 C   0  0  0  0  0  0  0  0  0  0  0  0
   10.4531    1.1634   63.1115 C   0  0  0  0  0  0  0  0  0  0  0  0
   10.7526    0.1930   64.2452 C   0  0  0  0  0  0  0  0  0  0  0  0
    9.7958    0.3838   65.2782 O   0  0  0  0  0  0  0  0  0  0  0  0
    6.1463   -0.0081   65.2365 C   0  0  0  0  0  0  0  0  0  0  0  0
    7.4120    0.5484   65.4320 C   0  0  0  0  0  0  0  0  0  0  0  0
    8.4426   -1.4482   64.5388 C   0  0  0  0  0  0  0  0  0  0  0  0
    6.0231   -1.2889   64.6907 C   0  0  0  0  0  0  0  0  0  0  0  0
    7.1763   -2.0029   64.3443 C   0  0  0  0  0  0  0  0  0  0  0  0
    8.5569   -0.1697   65.0840 C   0  0  0  0  0  0  0  0  0  0  0  0
    4.7170   -1.9057   64.4707 C   0  0  0  0  0  0  0  0  0  0  0  0
    4.6225   -3.1332   63.9469 C   0  0  0  0  0  0  0  0  0  0  0  0
    5.8367   -3.9085   63.5721 C   0  0  0  0  0  0  0  0  0  0  0  0
    7.0526   -3.2920   63.7948 N   0  0  0  0  0  0  0  0  0  0  0  0
    5.7210   -5.0350   63.0937 O   0  0  0  0  0  0  0  0  0  0  0  0
    7.9006   -3.7950   63.5494 H   0  0  0  0  0  0  0  0  0  0  0  0
  9 10  2  0  0  0
  9 11  1  0  0  0
 22 23  2  0  0  0
 22 25  1  0  0  0
 10 15  1  0  0  0
 23 27  1  0  0  0
 11 16  2  0  0  0
 12 13  2  0  0  0
 12 14  1  0  0  0
 24 26  1  0  0  0
 24 27  2  0  0  0
 13 17  1  0  0  0
 14 15  2  0  0  0
 14 16  1  0  0  0
 25 26  2  0  0  0
 25 28  1  0  0  0
 15  6  1  0  0  0
 26 31  1  0  0  0
 27 21  1  0  0  0
 16 17  1  0  0  0
 28 29  2  0  0  0
 29 30  1  0  0  0
 30 31  1  0  0  0
 30 32  2  0  0  0
  2  4  1  0  0  0
  2  6  1  0  0  0
  3  5  1  0  0  0
  3  6  1  0  0  0
  4  7  1  0  0  0
  5  7  1  0  0  0
 18 19  1  0  0  0
 18  1  1  0  0  0
 19 20  1  0  0  0
  1  7  1  0  0  0
 20 21  1  0  0  0
 31 33  1  0  0  0
  7  8  1  0  0  0
M  CHG 1   7   1
M  END
> <minimizedAffinity>
-10.10887

> <CNNscore>
0.5778839588

> <CNNaffinity>
6.9173250198

> <CNN_VS>
3.9974112511

> <CNNaffinity_variance>
0.0939854980

$$$$



 33 37  0  0  0  0  0  0  0  0999 V2000
   14.4442    0.4718   59.7175 C   0  0  0  0  0  0  0  0  0  0  0  0
   12.3905   -0.1721   62.8758 C   0  0  0  0  0  0  0  0  0  0  0  0
   10.8858    0.7062   61.0982 C   0  0  0  0  0  0  0  0  0  0  0  0
   13.4730   -0.4210   61.8342 C   0  0  0  0  0  0  0  0  0  0  0  0
   11.9741    0.4601   60.0609 C   0  0  0  0  0  0  0  0  0  0  0  0
   11.0604   -0.1809   62.2526 N   0  0  0  0  0  0  0  0  0  0  0  0
   13.3261    0.5794   60.7159 N   0  0  0  0  0  0  0  0  0  0  0  0
   13.3911    1.5205   61.1281 H   0  0  0  0  0  0  0  0  0  0  0  0
    8.6201    0.1132   64.9901 C   0  0  0  0  0  0  0  0  0  0  0  0
    9.6973    0.3669   64.1529 C   0  0  0  0  0  0  0  0  0  0  0  0
    7.7869   -0.9842   64.7646 C   0  0  0  0  0  0  0  0  0  0  0  0
    9.2061   -2.5913   61.7823 C   0  0  0  0  0  0  0  0  0  0  0  0
    8.2070   -3.5309   61.8768 C   0  0  0  0  0  0  0  0  0  0  0  0
    9.1371   -1.5967   62.8148 C   0  0  0  0  0  0  0  0  0  0  0  0
    9.9631   -0.4755   63.0702 C   0  0  0  0  0  0  0  0  0  0  0  0
    8.0577   -1.8315   63.6722 C   0  0  0  0  0  0  0  0  0  0  0  0
    7.1745   -3.2353   63.2003 S   0  0  0  0  0  0  0  0  0  0  0  0
   15.5331   -0.4274   60.2837 C   0  0  0  0  0  0  0  0  0  0  0  0
   16.8163   -0.3175   59.4635 C   0  0  0  0  0  0  0  0  0  0  0  0
   16.8227    0.9318   58.5942 C   0  0  0  0  0  0  0  0  0  0  0  0
   17.3546    0.6015   57.3188 O   0  0  0  0  0  0  0  0  0  0  0  0
   15.8846    0.3588   53.9640 C   0  0  0  0  0  0  0  0  0  0  0  0
   16.7981    0.6098   54.9899 C   0  0  0  0  0  0  0  0  0  0  0  0
   15.1907   -0.1552   56.6263 C   0  0  0  0  0  0  0  0  0  0  0  0
   14.6184   -0.1507   54.2653 C   0  0  0  0  0  0  0  0  0  0  0  0
   14.2789   -0.4052   55.5993 C   0  0  0  0  0  0  0  0  0  0  0  0
   16.4521    0.3533   56.3174 C   0  0  0  0  0  0  0  0  0  0  0  0
   13.6350   -0.4264   53.2205 C   0  0  0  0  0  0  0  0  0  0  0  0
   12.4286   -0.9142   53.5317 C   0  0  0  0  0  0  0  0  0  0  0  0
   12.0484   -1.1913   54.9439 C   0  0  0  0  0  0  0  0  0  0  0  0
   13.0046   -0.9181   55.9027 N   0  0  0  0  0  0  0  0  0  0  0  0
   10.9327   -1.6382   55.2018 O   0  0  0  0  0  0  0  0  0  0  0  0
   12.7760   -1.0966   56.8765 H   0  0  0  0  0  0  0  0  0  0  0  0
  9 10  2  0  0  0
  9 11  1  0  0  0
 22 23  2  0  0  0
 22 25  1  0  0  0
 10 15  1  0  0  0
 23 27  1  0  0  0
 11 16  2  0  0  0
 12 13  2  0  0  0
 12 14  1  0  0  0
 24 26  1  0  0  0
 24 27  2  0  0  0
 13 17  1  0  0  0
 14 15  2  0  0  0
 14 16  1  0  0  0
 25 26  2  0  0  0
 25 28  1  0  0  0
 15  6  1  0  0  0
 26 31  1  0  0  0
 27 21  1  0  0  0
 16 17  1  0  0  0
 28 29  2  0  0  0
 29 30  1  0  0  0
 30 31  1  0  0  0
 30 32  2  0  0  0
  2  4  1  0  0  0
  2  6  1  0  0  0
  3  5  1  0  0  0
  3  6  1  0  0  0
  4  7  1  0  0  0
  5  7  1  0  0  0
 18 19  1  0  0  0
 18  1  1  0  0  0
 19 20  1  0  0  0
  1  7  1  0  0  0
 20 21  1  0  0  0
 31 33  1  0  0  0
  7  8  1  0  0  0
M  CHG 1   7   1
M  END
> <minimizedAffinity>
-9.27483

> <CNNscore>
0.4794861674

> <CNNaffinity>
7.1923370361

> <CNN_VS>
3.4486260414

> <CNNaffinity_variance>
0.0154714137

$$$$



 33 37  0  0  0  0  0  0  0  0999 V2000
   12.2184    0.0256   62.3538 C   0  0  0  0  0  0  0  0  0  0  0  0
   13.4103    1.0953   58.8837 C   0  0  0  0  0  0  0  0  0  0  0  0
   15.1767   -0.2953   59.9520 C   0  0  0  0  0  0  0  0  0  0  0  0
   12.4164    0.6463   59.9463 C   0  0  0  0  0  0  0  0  0  0  0  0
   14.1797   -0.7374   61.0158 C   0  0  0  0  0  0  0  0  0  0  0  0
   14.4813    0.1029   58.7240 N   0  0  0  0  0  0  0  0  0  0  0  0
   13.1568    0.3493   61.2256 N   0  0  0  0  0  0  0  0  0  0  0  0
   13.6612    1.2038   61.5001 H   0  0  0  0  0  0  0  0  0  0  0  0
   17.1312    0.6944   56.2414 C   0  0  0  0  0  0  0  0  0  0  0  0
   16.4172    0.6947   57.4312 C   0  0  0  0  0  0  0  0  0  0  0  0
   16.6121    0.0795   55.1004 C   0  0  0  0  0  0  0  0  0  0  0  0
   13.3642   -1.2435   56.1924 C   0  0  0  0  0  0  0  0  0  0  0  0
   13.1893   -1.7239   54.9162 C   0  0  0  0  0  0  0  0  0  0  0  0
   14.6115   -0.5542   56.3636 C   0  0  0  0  0  0  0  0  0  0  0  0
   15.1655    0.0778   57.5032 C   0  0  0  0  0  0  0  0  0  0  0  0
   15.3498   -0.5415   55.1763 C   0  0  0  0  0  0  0  0  0  0  0  0
   14.5137   -1.3573   53.9079 S   0  0  0  0  0  0  0  0  0  0  0  0
   10.8383    0.5770   62.0279 C   0  0  0  0  0  0  0  0  0  0  0  0
   10.1316    1.0667   63.2898 C   0  0  0  0  0  0  0  0  0  0  0  0
   10.5574    0.2729   64.5166 C   0  0  0  0  0  0  0  0  0  0  0  0
    9.5545    0.3973   65.5153 O   0  0  0  0  0  0  0  0  0  0  0  0
    5.9213   -0.0099   65.1852 C   0  0  0  0  0  0  0  0  0  0  0  0
    7.1661    0.5594   65.4613 C   0  0  0  0  0  0  0  0  0  0  0  0
    8.2682   -1.4707   64.7469 C   0  0  0  0  0  0  0  0  0  0  0  0
    5.8445   -1.3141   64.6883 C   0  0  0  0  0  0  0  0  0  0  0  0
    7.0227   -2.0383   64.4717 C   0  0  0  0  0  0  0  0  0  0  0  0
    8.3363   -0.1689   65.2426 C   0  0  0  0  0  0  0  0  0  0  0  0
    4.5615   -1.9450   64.3872 C   0  0  0  0  0  0  0  0  0  0  0  0
    4.5114   -3.1947   63.9121 C   0  0  0  0  0  0  0  0  0  0  0  0
    5.7528   -3.9812   63.6751 C   0  0  0  0  0  0  0  0  0  0  0  0
    6.9457   -3.3508   63.9715 N   0  0  0  0  0  0  0  0  0  0  0  0
    5.6778   -5.1281   63.2391 O   0  0  0  0  0  0  0  0  0  0  0  0
    7.8113   -3.8609   63.8206 H   0  0  0  0  0  0  0  0  0  0  0  0
  9 10  2  0  0  0
  9 11  1  0  0  0
 22 23  2  0  0  0
 22 25  1  0  0  0
 10 15  1  0  0  0
 23 27  1  0  0  0
 11 16  2  0  0  0
 12 13  2  0  0  0
 12 14  1  0  0  0
 24 26  1  0  0  0
 24 27  2  0  0  0
 13 17  1  0  0  0
 14 15  2  0  0  0
 14 16  1  0  0  0
 25 26  2  0  0  0
 25 28  1  0  0  0
 15  6  1  0  0  0
 26 31  1  0  0  0
 27 21  1  0  0  0
 16 17  1  0  0  0
 28 29  2  0  0  0
 29 30  1  0  0  0
 30 31  1  0  0  0
 30 32  2  0  0  0
  2  4  1  0  0  0
  2  6  1  0  0  0
  3  5  1  0  0  0
  3  6  1  0  0  0
  4  7  1  0  0  0
  5  7  1  0  0  0
 18 19  1  0  0  0
 18  1  1  0  0  0
 19 20  1  0  0  0
  1  7  1  0  0  0
 20 21  1  0  0  0
 31 33  1  0  0  0
  7  8  1  0  0  0
M  CHG 1   7   1
M  END
> <minimizedAffinity>
-10.08088

> <CNNscore>
0.4564294219

> <CNNaffinity>
6.7827119827

> <CNN_VS>
3.0958292484

> <CNNaffinity_variance>
0.0534402654

$$$$



 33 37  0  0  0  0  0  0  0  0999 V2000
   11.7950    0.0165   62.3914 C   0  0  0  0  0  0  0  0  0  0  0  0
   13.2403    1.2529   59.0764 C   0  0  0  0  0  0  0  0  0  0  0  0
   14.9202   -0.2011   60.1985 C   0  0  0  0  0  0  0  0  0  0  0  0
   12.1702    0.7570   60.0395 C   0  0  0  0  0  0  0  0  0  0  0  0
   13.8470   -0.6901   61.1629 C   0  0  0  0  0  0  0  0  0  0  0  0
   14.3176    0.2631   58.9449 N   0  0  0  0  0  0  0  0  0  0  0  0
   12.8143    0.3910   61.3526 N   0  0  0  0  0  0  0  0  0  0  0  0
   13.2995    1.2273   61.7063 H   0  0  0  0  0  0  0  0  0  0  0  0
   17.1079    1.0325   56.6739 C   0  0  0  0  0  0  0  0  0  0  0  0
   16.3102    0.9745   57.8078 C   0  0  0  0  0  0  0  0  0  0  0  0
   16.7048    0.4153   55.4882 C   0  0  0  0  0  0  0  0  0  0  0  0
   13.4569   -1.0867   56.3168 C   0  0  0  0  0  0  0  0  0  0  0  0
   13.3998   -1.5501   55.0238 C   0  0  0  0  0  0  0  0  0  0  0  0
   14.6521   -0.3405   56.5904 C   0  0  0  0  0  0  0  0  0  0  0  0
   15.0892    0.2956   57.7776 C   0  0  0  0  0  0  0  0  0  0  0  0
   15.4733   -0.2683   55.4610 C   0  0  0  0  0  0  0  0  0  0  0  0
   14.7739   -1.0992   54.1217 S   0  0  0  0  0  0  0  0  0  0  0  0
   10.5505    0.8704   62.1991 C   0  0  0  0  0  0  0  0  0  0  0  0
    9.8472    1.1221   63.5308 C   0  0  0  0  0  0  0  0  0  0  0  0
   10.5292    0.3855   64.6748 C   0  0  0  0  0  0  0  0  0  0  0  0
    9.5336   -0.1348   65.5447 O   0  0  0  0  0  0  0  0  0  0  0  0
    8.2053   -3.0376   63.7324 C   0  0  0  0  0  0  0  0  0  0  0  0
    9.1074   -2.1272   64.2868 C   0  0  0  0  0  0  0  0  0  0  0  0
    7.2713   -0.8238   65.1679 C   0  0  0  0  0  0  0  0  0  0  0  0
    6.8303   -2.8446   63.8933 C   0  0  0  0  0  0  0  0  0  0  0  0
    6.3710   -1.7349   64.6126 C   0  0  0  0  0  0  0  0  0  0  0  0
    8.6416   -1.0235   65.0027 C   0  0  0  0  0  0  0  0  0  0  0  0
    5.8548   -3.7741   63.3286 C   0  0  0  0  0  0  0  0  0  0  0  0
    4.5431   -3.5698   63.4950 C   0  0  0  0  0  0  0  0  0  0  0  0
    4.0348   -2.3961   64.2564 C   0  0  0  0  0  0  0  0  0  0  0  0
    4.9872   -1.5405   64.7749 N   0  0  0  0  0  0  0  0  0  0  0  0
    2.8242   -2.2318   64.3929 O   0  0  0  0  0  0  0  0  0  0  0  0
    4.6725   -0.7297   65.3000 H   0  0  0  0  0  0  0  0  0  0  0  0
  9 10  2  0  0  0
  9 11  1  0  0  0
 22 23  2  0  0  0
 22 25  1  0  0  0
 10 15  1  0  0  0
 23 27  1  0  0  0
 11 16  2  0  0  0
 12 13  2  0  0  0
 12 14  1  0  0  0
 24 26  1  0  0  0
 24 27  2  0  0  0
 13 17  1  0  0  0
 14 15  2  0  0  0
 14 16  1  0  0  0
 25 26  2  0  0  0
 25 28  1  0  0  0
 15  6  1  0  0  0
 26 31  1  0  0  0
 27 21  1  0  0  0
 16 17  1  0  0  0
 28 29  2  0  0  0
 29 30  1  0  0  0
 30 31  1  0  0  0
 30 32  2  0  0  0
  2  4  1  0  0  0
  2  6  1  0  0  0
  3  5  1  0  0  0
  3  6  1  0  0  0
  4  7  1  0  0  0
  5  7  1  0  0  0
 18 19  1  0  0  0
 18  1  1  0  0  0
 19 20  1  0  0  0
  1  7  1  0  0  0
 20 21  1  0  0  0
 31 33  1  0  0  0
  7  8  1  0  0  0
M  CHG 1   7   1
M  END
> <minimizedAffinity>
-9.55180

> <CNNscore>
0.4010397196

> <CNNaffinity>
6.6958298683

> <CNN_VS>
2.6852936745

> <CNNaffinity_variance>
0.0219761208

$$$$



 33 37  0  0  0  0  0  0  0  0999 V2000
   16.1652    0.9285   59.5221 C   0  0  0  0  0  0  0  0  0  0  0  0
   13.5464   -0.6483   61.8161 C   0  0  0  0  0  0  0  0  0  0  0  0
   12.4212    0.9724   60.2987 C   0  0  0  0  0  0  0  0  0  0  0  0
   14.7952   -0.5929   60.9465 C   0  0  0  0  0  0  0  0  0  0  0  0
   13.6749    1.0282   59.4350 C   0  0  0  0  0  0  0  0  0  0  0  0
   12.3545   -0.2946   61.0339 N   0  0  0  0  0  0  0  0  0  0  0  0
   14.8855    0.7624   60.2923 N   0  0  0  0  0  0  0  0  0  0  0  0
   14.8998    1.4699   61.0401 H   0  0  0  0  0  0  0  0  0  0  0  0
    9.2073   -2.1980   61.1175 C   0  0  0  0  0  0  0  0  0  0  0  0
   10.4368   -1.7033   60.7064 C   0  0  0  0  0  0  0  0  0  0  0  0
    8.6321   -1.7687   62.3151 C   0  0  0  0  0  0  0  0  0  0  0  0
   11.0607    0.6321   63.6677 C   0  0  0  0  0  0  0  0  0  0  0  0
   10.2137    0.8077   64.7363 C   0  0  0  0  0  0  0  0  0  0  0  0
   10.5605   -0.3104   62.7076 C   0  0  0  0  0  0  0  0  0  0  0  0
   11.1173   -0.7659   61.4880 C   0  0  0  0  0  0  0  0  0  0  0  0
    9.3207   -0.8236   63.1007 C   0  0  0  0  0  0  0  0  0  0  0  0
    8.8111   -0.1518   64.6049 S   0  0  0  0  0  0  0  0  0  0  0  0
   16.7348   -0.4451   59.1998 C   0  0  0  0  0  0  0  0  0  0  0  0
   17.5831   -0.4028   57.9310 C   0  0  0  0  0  0  0  0  0  0  0  0
   17.4015    0.9066   57.1766 C   0  0  0  0  0  0  0  0  0  0  0  0
   17.2002    0.6195   55.7997 O   0  0  0  0  0  0  0  0  0  0  0  0
   14.6248   -1.2047   53.9250 C   0  0  0  0  0  0  0  0  0  0  0  0
   15.8623   -0.6703   54.2898 C   0  0  0  0  0  0  0  0  0  0  0  0
   14.8645    0.3387   56.2475 C   0  0  0  0  0  0  0  0  0  0  0  0
   13.5003   -0.9691   54.7209 C   0  0  0  0  0  0  0  0  0  0  0  0
   13.6283   -0.1962   55.8810 C   0  0  0  0  0  0  0  0  0  0  0  0
   15.9818    0.0992   55.4479 C   0  0  0  0  0  0  0  0  0  0  0  0
   12.1885   -1.5105   54.3733 C   0  0  0  0  0  0  0  0  0  0  0  0
   11.1254   -1.2724   55.1498 C   0  0  0  0  0  0  0  0  0  0  0  0
   11.2408   -0.4531   56.3872 C   0  0  0  0  0  0  0  0  0  0  0  0
   12.4966    0.0409   56.6823 N   0  0  0  0  0  0  0  0  0  0  0  0
   10.2473   -0.2488   57.0819 O   0  0  0  0  0  0  0  0  0  0  0  0
   12.6087    0.6040   57.5205 H   0  0  0  0  0  0  0  0  0  0  0  0
  9 10  2  0  0  0
  9 11  1  0  0  0
 22 23  2  0  0  0
 22 25  1  0  0  0
 10 15  1  0  0  0
 23 27  1  0  0  0
 11 16  2  0  0  0
 12 13  2  0  0  0
 12 14  1  0  0  0
 24 26  1  0  0  0
 24 27  2  0  0  0
 13 17  1  0  0  0
 14 15  2  0  0  0
 14 16  1  0  0  0
 25 26  2  0  0  0
 25 28  1  0  0  0
 15  6  1  0  0  0
 26 31  1  0  0  0
 27 21  1  0  0  0
 16 17  1  0  0  0
 28 29  2  0  0  0
 29 30  1  0  0  0
 30 31  1  0  0  0
 30 32  2  0  0  0
  2  4  1  0  0  0
  2  6  1  0  0  0
  3  5  1  0  0  0
  3  6  1  0  0  0
  4  7  1  0  0  0
  5  7  1  0  0  0
 18 19  1  0  0  0
 18  1  1  0  0  0
 19 20  1  0  0  0
  1  7  1  0  0  0
 20 21  1  0  0  0
 31 33  1  0  0  0
  7  8  1  0  0  0
M  CHG 1   7   1
M  END
> <minimizedAffinity>
-9.11583

> <CNNscore>
0.3878977895

> <CNNaffinity>
7.1927957535

> <CNN_VS>
2.7900695801

> <CNNaffinity_variance>
0.1076195985

$$$$



 31 35  0  0  0  0  0  0  0  0999 V2000
   16.0028    0.1291   60.5003 C   0  0  0  0  0  0  0  0  0  0  0  0
   14.2035    0.0269   58.7286 C   0  0  0  0  0  0  0  0  0  0  0  0
   14.9557   -0.1649   61.5669 C   0  0  0  0  0  0  0  0  0  0  0  0
   13.1702   -0.2666   59.8087 C   0  0  0  0  0  0  0  0  0  0  0  0
   15.6023   -0.4615   59.1387 C   0  0  0  0  0  0  0  0  0  0  0  0
   13.6002    0.3539   61.1248 N   0  0  0  0  0  0  0  0  0  0  0  0
   13.7183    1.3667   60.9463 H   0  0  0  0  0  0  0  0  0  0  0  0
   18.8129   -1.3776   58.7573 C   0  0  0  0  0  0  0  0  0  0  0  0
   20.1252   -1.5419   58.2919 C   0  0  0  0  0  0  0  0  0  0  0  0
   19.7068   -0.0967   56.3729 C   0  0  0  0  0  0  0  0  0  0  0  0
   17.9449   -0.5621   58.0167 C   0  0  0  0  0  0  0  0  0  0  0  0
   18.4122    0.0443   56.8638 C   0  0  0  0  0  0  0  0  0  0  0  0
   20.5616   -0.9124   57.1215 C   0  0  0  0  0  0  0  0  0  0  0  0
   16.6072   -0.1291   58.0991 C   0  0  0  0  0  0  0  0  0  0  0  0
   16.2697    0.6765   57.0876 N   0  0  0  0  0  0  0  0  0  0  0  0
   17.4144    0.7844   56.3075 O   0  0  0  0  0  0  0  0  0  0  0  0
   21.8244   -1.0925   56.7097 F   0  0  0  0  0  0  0  0  0  0  0  0
   12.5676    0.2069   62.1811 C   0  0  0  0  0  0  0  0  0  0  0  0
   11.1981    0.5261   61.6166 C   0  0  0  0  0  0  0  0  0  0  0  0
   10.1483   -0.3453   62.2423 C   0  0  0  0  0  0  0  0  0  0  0  0
    9.6507   -0.2267   63.4887 C   0  0  0  0  0  0  0  0  0  0  0  0
    9.6038   -1.4368   61.3753 C   0  0  0  0  0  0  0  0  0  0  0  0
    8.1632   -1.9508   63.2440 C   0  0  0  0  0  0  0  0  0  0  0  0
    7.0219   -2.7701   63.8177 C   0  0  0  0  0  0  0  0  0  0  0  0
    6.7907   -4.0965   63.1239 C   0  0  0  0  0  0  0  0  0  0  0  0
    6.7289   -3.8657   61.6276 C   0  0  0  0  0  0  0  0  0  0  0  0
    8.0606   -3.3130   61.1553 C   0  0  0  0  0  0  0  0  0  0  0  0
   10.1487    0.7979   64.4744 C   0  0  0  0  0  0  0  0  0  0  0  0
    8.6566   -1.0231   64.0023 N   0  0  0  0  0  0  0  0  0  0  0  0
    8.5718   -2.1875   61.9436 N   0  0  0  0  0  0  0  0  0  0  0  0
   10.0783   -1.6308   60.2566 O   0  0  0  0  0  0  0  0  0  0  0  0
  8  9  2  0  0  0
  8 11  1  0  0  0
  9 13  1  0  0  0
 10 12  1  0  0  0
 10 13  2  0  0  0
 11 12  2  0  0  0
 11 14  1  0  0  0
 12 16  1  0  0  0
 13 17  1  0  0  0
 14  5  1  0  0  0
 14 15  2  0  0  0
 20 21  2  0  0  0
 20 22  1  0  0  0
 20 19  1  0  0  0
 21 28  1  0  0  0
 21 29  1  0  0  0
 22 30  1  0  0  0
 22 31  2  0  0  0
 23 24  1  0  0  0
 23 29  2  0  0  0
 23 30  1  0  0  0
 24 25  1  0  0  0
 25 26  1  0  0  0
 26 27  1  0  0  0
  1  3  1  0  0  0
  1  5  1  0  0  0
  2  4  1  0  0  0
  2  5  1  0  0  0
 27 30  1  0  0  0
  3  6  1  0  0  0
  4  6  1  0  0  0
 19 18  1  0  0  0
 18  6  1  0  0  0
 15 16  1  0  0  0
  6  7  1  0  0  0
M  CHG 1   6   1
M  END
> <minimizedAffinity>
-11.29757

> <CNNscore>
0.7403697968

> <CNNaffinity>
7.3728003502

> <CNN_VS>
5.4585986137

> <CNNaffinity_variance>
0.1244486123

$$$$



 31 35  0  0  0  0  0  0  0  0999 V2000
   16.0138    0.0320   60.0605 C   0  0  0  0  0  0  0  0  0  0  0  0
   14.3983    0.2101   58.1252 C   0  0  0  0  0  0  0  0  0  0  0  0
   14.8429   -0.2179   61.0023 C   0  0  0  0  0  0  0  0  0  0  0  0
   13.2398   -0.0414   59.0818 C   0  0  0  0  0  0  0  0  0  0  0  0
   15.6978   -0.4369   58.6311 C   0  0  0  0  0  0  0  0  0  0  0  0
   13.5921    0.4570   60.4709 N   0  0  0  0  0  0  0  0  0  0  0  0
   13.8209    1.4616   60.3722 H   0  0  0  0  0  0  0  0  0  0  0  0
   18.9159   -1.4043   58.6714 C   0  0  0  0  0  0  0  0  0  0  0  0
   20.2725   -1.5981   58.3752 C   0  0  0  0  0  0  0  0  0  0  0  0
   20.1158   -0.2014   56.3825 C   0  0  0  0  0  0  0  0  0  0  0  0
   18.1584   -0.5985   57.8087 C   0  0  0  0  0  0  0  0  0  0  0  0
   18.7732   -0.0304   56.7067 C   0  0  0  0  0  0  0  0  0  0  0  0
   20.8591   -1.0069   57.2514 C   0  0  0  0  0  0  0  0  0  0  0  0
   16.8279   -0.1464   57.7147 C   0  0  0  0  0  0  0  0  0  0  0  0
   16.6299    0.6351   56.6488 N   0  0  0  0  0  0  0  0  0  0  0  0
   17.8632    0.7067   56.0128 O   0  0  0  0  0  0  0  0  0  0  0  0
   22.1598   -1.2145   57.0029 F   0  0  0  0  0  0  0  0  0  0  0  0
   12.4503    0.3522   61.4137 C   0  0  0  0  0  0  0  0  0  0  0  0
   11.1742    0.8097   60.7366 C   0  0  0  0  0  0  0  0  0  0  0  0
   10.1425   -0.2802   60.7537 C   0  0  0  0  0  0  0  0  0  0  0  0
    9.4935   -0.7825   59.6852 C   0  0  0  0  0  0  0  0  0  0  0  0
    9.8297   -0.8626   62.0963 C   0  0  0  0  0  0  0  0  0  0  0  0
    8.3357   -2.3382   60.9037 C   0  0  0  0  0  0  0  0  0  0  0  0
    7.3804   -3.5170   60.9284 C   0  0  0  0  0  0  0  0  0  0  0  0
    6.7642   -3.7973   62.2834 C   0  0  0  0  0  0  0  0  0  0  0  0
    7.8633   -3.8375   63.3257 C   0  0  0  0  0  0  0  0  0  0  0  0
    8.5388   -2.4803   63.3872 C   0  0  0  0  0  0  0  0  0  0  0  0
    9.6825   -0.2504   58.2886 C   0  0  0  0  0  0  0  0  0  0  0  0
    8.5873   -1.8129   59.7462 N   0  0  0  0  0  0  0  0  0  0  0  0
    8.9278   -1.9293   62.0854 N   0  0  0  0  0  0  0  0  0  0  0  0
   10.3419   -0.3875   63.1093 O   0  0  0  0  0  0  0  0  0  0  0  0
  8  9  2  0  0  0
  8 11  1  0  0  0
  9 13  1  0  0  0
 10 12  1  0  0  0
 10 13  2  0  0  0
 11 12  2  0  0  0
 11 14  1  0  0  0
 12 16  1  0  0  0
 13 17  1  0  0  0
 14  5  1  0  0  0
 14 15  2  0  0  0
 20 21  2  0  0  0
 20 22  1  0  0  0
 20 19  1  0  0  0
 21 28  1  0  0  0
 21 29  1  0  0  0
 22 30  1  0  0  0
 22 31  2  0  0  0
 23 24  1  0  0  0
 23 29  2  0  0  0
 23 30  1  0  0  0
 24 25  1  0  0  0
 25 26  1  0  0  0
 26 27  1  0  0  0
  1  3  1  0  0  0
  1  5  1  0  0  0
  2  4  1  0  0  0
  2  5  1  0  0  0
 27 30  1  0  0  0
  3  6  1  0  0  0
  4  6  1  0  0  0
 19 18  1  0  0  0
 18  6  1  0  0  0
 15 16  1  0  0  0
  6  7  1  0  0  0
M  CHG 1   6   1
M  END
> <minimizedAffinity>
-11.37260

> <CNNscore>
0.6139537096

> <CNNaffinity>
7.2398133278

> <CNN_VS>
4.4449100494

> <CNNaffinity_variance>
0.0331932381

$$$$



 31 35  0  0  0  0  0  0  0  0999 V2000
   13.7442   -0.2811   59.9357 C   0  0  0  0  0  0  0  0  0  0  0  0
   14.3349    1.7803   58.5985 C   0  0  0  0  0  0  0  0  0  0  0  0
   12.3010    0.1989   60.0199 C   0  0  0  0  0  0  0  0  0  0  0  0
   12.8871    2.2444   58.6926 C   0  0  0  0  0  0  0  0  0  0  0  0
   14.4420    0.2486   58.6726 C   0  0  0  0  0  0  0  0  0  0  0  0
   12.2506    1.7143   59.9638 N   0  0  0  0  0  0  0  0  0  0  0  0
   12.8338    2.0558   60.7477 H   0  0  0  0  0  0  0  0  0  0  0  0
   16.8910    0.8350   56.4473 C   0  0  0  0  0  0  0  0  0  0  0  0
   18.1107    0.8642   55.7565 C   0  0  0  0  0  0  0  0  0  0  0  0
   19.1834   -0.5401   57.4368 C   0  0  0  0  0  0  0  0  0  0  0  0
   16.8254    0.1077   57.6447 C   0  0  0  0  0  0  0  0  0  0  0  0
   17.9577   -0.5478   58.0959 C   0  0  0  0  0  0  0  0  0  0  0  0
   19.2343    0.1887   56.2440 C   0  0  0  0  0  0  0  0  0  0  0  0
   15.8593   -0.1879   58.6259 C   0  0  0  0  0  0  0  0  0  0  0  0
   16.3452   -0.9600   59.6025 N   0  0  0  0  0  0  0  0  0  0  0  0
   17.6737   -1.1861   59.2641 O   0  0  0  0  0  0  0  0  0  0  0  0
   20.3824    0.2389   55.5540 F   0  0  0  0  0  0  0  0  0  0  0  0
   10.8781    2.2414   60.1690 C   0  0  0  0  0  0  0  0  0  0  0  0
   10.2670    1.6283   61.4128 C   0  0  0  0  0  0  0  0  0  0  0  0
    9.6123    0.3162   61.0927 C   0  0  0  0  0  0  0  0  0  0  0  0
    9.5236   -0.7522   61.9086 C   0  0  0  0  0  0  0  0  0  0  0  0
    8.9906    0.2104   59.7355 C   0  0  0  0  0  0  0  0  0  0  0  0
    8.3105   -2.0027   60.4220 C   0  0  0  0  0  0  0  0  0  0  0  0
    7.5459   -3.2786   60.1214 C   0  0  0  0  0  0  0  0  0  0  0  0
    7.3076   -3.5352   58.6478 C   0  0  0  0  0  0  0  0  0  0  0  0
    6.7410   -2.2807   58.0145 C   0  0  0  0  0  0  0  0  0  0  0  0
    7.7559   -1.1598   58.1393 C   0  0  0  0  0  0  0  0  0  0  0  0
   10.1494   -0.7898   63.2783 C   0  0  0  0  0  0  0  0  0  0  0  0
    8.8744   -1.9187   61.5857 N   0  0  0  0  0  0  0  0  0  0  0  0
    8.3164   -0.9867   59.4829 N   0  0  0  0  0  0  0  0  0  0  0  0
    9.1094    1.1321   58.9290 O   0  0  0  0  0  0  0  0  0  0  0  0
  8  9  2  0  0  0
  8 11  1  0  0  0
  9 13  1  0  0  0
 10 12  1  0  0  0
 10 13  2  0  0  0
 11 12  2  0  0  0
 11 14  1  0  0  0
 12 16  1  0  0  0
 13 17  1  0  0  0
 14  5  1  0  0  0
 14 15  2  0  0  0
 20 21  2  0  0  0
 20 22  1  0  0  0
 20 19  1  0  0  0
 21 28  1  0  0  0
 21 29  1  0  0  0
 22 30  1  0  0  0
 22 31  2  0  0  0
 23 24  1  0  0  0
 23 29  2  0  0  0
 23 30  1  0  0  0
 24 25  1  0  0  0
 25 26  1  0  0  0
 26 27  1  0  0  0
  1  3  1  0  0  0
  1  5  1  0  0  0
  2  4  1  0  0  0
  2  5  1  0  0  0
 27 30  1  0  0  0
  3  6  1  0  0  0
  4  6  1  0  0  0
 19 18  1  0  0  0
 18  6  1  0  0  0
 15 16  1  0  0  0
  6  7  1  0  0  0
M  CHG 1   6   1
M  END
> <minimizedAffinity>
-10.01611

> <CNNscore>
0.5913282633

> <CNNaffinity>
7.2490568161

> <CNN_VS>
4.2865719795

> <CNNaffinity_variance>
0.0555757470

$$$$



 31 35  0  0  0  0  0  0  0  0999 V2000
   15.7081    0.3929   59.6471 C   0  0  0  0  0  0  0  0  0  0  0  0
   14.3354    0.3807   57.5253 C   0  0  0  0  0  0  0  0  0  0  0  0
   14.4351    0.1965   60.4604 C   0  0  0  0  0  0  0  0  0  0  0  0
   13.0729    0.1841   58.3548 C   0  0  0  0  0  0  0  0  0  0  0  0
   15.5713   -0.1967   58.2341 C   0  0  0  0  0  0  0  0  0  0  0  0
   13.2504    0.8005   59.7298 N   0  0  0  0  0  0  0  0  0  0  0  0
   13.4789    1.7983   59.5761 H   0  0  0  0  0  0  0  0  0  0  0  0
   18.7168   -1.3270   58.5829 C   0  0  0  0  0  0  0  0  0  0  0  0
   20.0848   -1.5879   58.4209 C   0  0  0  0  0  0  0  0  0  0  0  0
   20.1978   -0.1728   56.4382 C   0  0  0  0  0  0  0  0  0  0  0  0
   18.0904   -0.4784   57.6584 C   0  0  0  0  0  0  0  0  0  0  0  0
   18.8398    0.0645   56.6293 C   0  0  0  0  0  0  0  0  0  0  0  0
   20.8094   -1.0205   57.3676 C   0  0  0  0  0  0  0  0  0  0  0  0
   16.8003    0.0415   57.4377 C   0  0  0  0  0  0  0  0  0  0  0  0
   16.7491    0.8387   56.3663 N   0  0  0  0  0  0  0  0  0  0  0  0
   18.0416    0.8512   55.8568 O   0  0  0  0  0  0  0  0  0  0  0  0
   22.1164   -1.2926   57.2471 F   0  0  0  0  0  0  0  0  0  0  0  0
   12.0046    0.7493   60.5354 C   0  0  0  0  0  0  0  0  0  0  0  0
   12.1777   -0.2055   61.6992 C   0  0  0  0  0  0  0  0  0  0  0  0
   10.8704   -0.4309   62.4015 C   0  0  0  0  0  0  0  0  0  0  0  0
    9.8991   -1.2858   62.0262 C   0  0  0  0  0  0  0  0  0  0  0  0
   10.6508    0.3709   63.6458 C   0  0  0  0  0  0  0  0  0  0  0  0
    8.5558   -0.8174   63.8209 C   0  0  0  0  0  0  0  0  0  0  0  0
    7.2917   -1.1131   64.6068 C   0  0  0  0  0  0  0  0  0  0  0  0
    6.8923   -0.0279   65.5850 C   0  0  0  0  0  0  0  0  0  0  0  0
    8.0978    0.3485   66.4225 C   0  0  0  0  0  0  0  0  0  0  0  0
    9.1779    0.9067   65.5150 C   0  0  0  0  0  0  0  0  0  0  0  0
    9.9775   -2.1124   60.7693 C   0  0  0  0  0  0  0  0  0  0  0  0
    8.7361   -1.4894   62.7278 N   0  0  0  0  0  0  0  0  0  0  0  0
    9.4658    0.0915   64.3308 N   0  0  0  0  0  0  0  0  0  0  0  0
   11.4759    1.2172   63.9881 O   0  0  0  0  0  0  0  0  0  0  0  0
  8  9  2  0  0  0
  8 11  1  0  0  0
  9 13  1  0  0  0
 10 12  1  0  0  0
 10 13  2  0  0  0
 11 12  2  0  0  0
 11 14  1  0  0  0
 12 16  1  0  0  0
 13 17  1  0  0  0
 14  5  1  0  0  0
 14 15  2  0  0  0
 20 21  2  0  0  0
 20 22  1  0  0  0
 20 19  1  0  0  0
 21 28  1  0  0  0
 21 29  1  0  0  0
 22 30  1  0  0  0
 22 31  2  0  0  0
 23 24  1  0  0  0
 23 29  2  0  0  0
 23 30  1  0  0  0
 24 25  1  0  0  0
 25 26  1  0  0  0
 26 27  1  0  0  0
  1  3  1  0  0  0
  1  5  1  0  0  0
  2  4  1  0  0  0
  2  5  1  0  0  0
 27 30  1  0  0  0
  3  6  1  0  0  0
  4  6  1  0  0  0
 19 18  1  0  0  0
 18  6  1  0  0  0
 15 16  1  0  0  0
  6  7  1  0  0  0
M  CHG 1   6   1
M  END
> <minimizedAffinity>
-11.53571

> <CNNscore>
0.5522643328

> <CNNaffinity>
7.0436172485

> <CNN_VS>
3.8899385929

> <CNNaffinity_variance>
0.0514951348

$$$$



 31 35  0  0  0  0  0  0  0  0999 V2000
   13.8839   -0.5264   59.9936 C   0  0  0  0  0  0  0  0  0  0  0  0
   14.3338    1.5932   58.6930 C   0  0  0  0  0  0  0  0  0  0  0  0
   12.4149   -0.1376   60.1003 C   0  0  0  0  0  0  0  0  0  0  0  0
   12.8613    1.9656   58.8094 C   0  0  0  0  0  0  0  0  0  0  0  0
   14.5352    0.0698   58.7352 C   0  0  0  0  0  0  0  0  0  0  0  0
   12.2714    1.3726   60.0752 N   0  0  0  0  0  0  0  0  0  0  0  0
   12.8405    1.7339   60.8607 H   0  0  0  0  0  0  0  0  0  0  0  0
   16.8861    0.7194   56.4234 C   0  0  0  0  0  0  0  0  0  0  0  0
   18.0841    0.7977   55.6993 C   0  0  0  0  0  0  0  0  0  0  0  0
   19.2857   -0.4672   57.4030 C   0  0  0  0  0  0  0  0  0  0  0  0
   16.8968    0.0383   57.6495 C   0  0  0  0  0  0  0  0  0  0  0  0
   18.0795   -0.5257   58.0948 C   0  0  0  0  0  0  0  0  0  0  0  0
   19.2604    0.2147   56.1820 C   0  0  0  0  0  0  0  0  0  0  0  0
   15.9759   -0.2779   58.6671 C   0  0  0  0  0  0  0  0  0  0  0  0
   16.5343   -0.9777   59.6594 N   0  0  0  0  0  0  0  0  0  0  0  0
   17.8658   -1.1330   59.2941 O   0  0  0  0  0  0  0  0  0  0  0  0
   20.3855    0.3094   55.4597 F   0  0  0  0  0  0  0  0  0  0  0  0
   10.8714    1.8104   60.3033 C   0  0  0  0  0  0  0  0  0  0  0  0
   10.6411    2.0659   61.7791 C   0  0  0  0  0  0  0  0  0  0  0  0
   10.2387    0.8020   62.4815 C   0  0  0  0  0  0  0  0  0  0  0  0
   10.5107    0.4778   63.7606 C   0  0  0  0  0  0  0  0  0  0  0  0
    9.4461   -0.1730   61.6687 C   0  0  0  0  0  0  0  0  0  0  0  0
    9.3714   -1.5073   63.6802 C   0  0  0  0  0  0  0  0  0  0  0  0
    8.8584   -2.7384   64.4043 C   0  0  0  0  0  0  0  0  0  0  0  0
    8.4490   -3.8773   63.4936 C   0  0  0  0  0  0  0  0  0  0  0  0
    7.5347   -3.3389   62.4118 C   0  0  0  0  0  0  0  0  0  0  0  0
    8.2940   -2.3213   61.5812 C   0  0  0  0  0  0  0  0  0  0  0  0
   11.3398    1.3497   64.6671 C   0  0  0  0  0  0  0  0  0  0  0  0
   10.0821   -0.6744   64.3732 N   0  0  0  0  0  0  0  0  0  0  0  0
    9.0112   -1.3067   62.3595 N   0  0  0  0  0  0  0  0  0  0  0  0
    9.2360    0.0451   60.4761 O   0  0  0  0  0  0  0  0  0  0  0  0
  8  9  2  0  0  0
  8 11  1  0  0  0
  9 13  1  0  0  0
 10 12  1  0  0  0
 10 13  2  0  0  0
 11 12  2  0  0  0
 11 14  1  0  0  0
 12 16  1  0  0  0
 13 17  1  0  0  0
 14  5  1  0  0  0
 14 15  2  0  0  0
 20 21  2  0  0  0
 20 22  1  0  0  0
 20 19  1  0  0  0
 21 28  1  0  0  0
 21 29  1  0  0  0
 22 30  1  0  0  0
 22 31  2  0  0  0
 23 24  1  0  0  0
 23 29  2  0  0  0
 23 30  1  0  0  0
 24 25  1  0  0  0
 25 26  1  0  0  0
 26 27  1  0  0  0
  1  3  1  0  0  0
  1  5  1  0  0  0
  2  4  1  0  0  0
  2  5  1  0  0  0
 27 30  1  0  0  0
  3  6  1  0  0  0
  4  6  1  0  0  0
 19 18  1  0  0  0
 18  6  1  0  0  0
 15 16  1  0  0  0
  6  7  1  0  0  0
M  CHG 1   6   1
M  END
> <minimizedAffinity>
-10.23600

> <CNNscore>
0.4834661186

> <CNNaffinity>
7.1179971695

> <CNN_VS>
3.4413104057

> <CNNaffinity_variance>
0.0379220732

$$$$



 31 35  0  0  0  0  0  0  0  0999 V2000
   12.0946    2.1595   58.0221 C   0  0  0  0  0  0  0  0  0  0  0  0
   12.9004    0.1756   59.3642 C   0  0  0  0  0  0  0  0  0  0  0  0
   11.7156    2.8686   59.3159 C   0  0  0  0  0  0  0  0  0  0  0  0
   12.5155    0.9000   60.6479 C   0  0  0  0  0  0  0  0  0  0  0  0
   13.2467    1.1655   58.2403 C   0  0  0  0  0  0  0  0  0  0  0  0
   11.3631    1.8512   60.3850 N   0  0  0  0  0  0  0  0  0  0  0  0
   10.5919    1.2777   60.0005 H   0  0  0  0  0  0  0  0  0  0  0  0
   16.1785    0.5487   56.7180 C   0  0  0  0  0  0  0  0  0  0  0  0
   17.1775    0.1214   55.8320 C   0  0  0  0  0  0  0  0  0  0  0  0
   15.5344   -0.9178   54.3600 C   0  0  0  0  0  0  0  0  0  0  0  0
   14.8456    0.2355   56.4139 C   0  0  0  0  0  0  0  0  0  0  0  0
   14.5690   -0.4779   55.2609 C   0  0  0  0  0  0  0  0  0  0  0  0
   16.8591   -0.5982   54.6755 C   0  0  0  0  0  0  0  0  0  0  0  0
   13.5753    0.4488   56.9834 C   0  0  0  0  0  0  0  0  0  0  0  0
   12.5929   -0.0838   56.2505 N   0  0  0  0  0  0  0  0  0  0  0  0
   13.2251   -0.6696   55.1607 O   0  0  0  0  0  0  0  0  0  0  0  0
   17.8423   -0.9878   53.8520 F   0  0  0  0  0  0  0  0  0  0  0  0
   10.8641    2.4894   61.6289 C   0  0  0  0  0  0  0  0  0  0  0  0
    9.4481    2.0322   61.9151 C   0  0  0  0  0  0  0  0  0  0  0  0
    9.3193    0.5488   61.7260 C   0  0  0  0  0  0  0  0  0  0  0  0
    9.5652   -0.3987   62.6517 C   0  0  0  0  0  0  0  0  0  0  0  0
    8.8571    0.1003   60.3752 C   0  0  0  0  0  0  0  0  0  0  0  0
    8.9629   -2.1344   61.2844 C   0  0  0  0  0  0  0  0  0  0  0  0
    8.7175   -3.6216   61.1083 C   0  0  0  0  0  0  0  0  0  0  0  0
    8.6735   -4.0842   59.6667 C   0  0  0  0  0  0  0  0  0  0  0  0
    7.7391   -3.1809   58.8877 C   0  0  0  0  0  0  0  0  0  0  0  0
    8.2834   -1.7648   58.9115 C   0  0  0  0  0  0  0  0  0  0  0  0
   10.0811   -0.0807   64.0309 C   0  0  0  0  0  0  0  0  0  0  0  0
    9.3903   -1.7451   62.4441 N   0  0  0  0  0  0  0  0  0  0  0  0
    8.6655   -1.2769   60.2402 N   0  0  0  0  0  0  0  0  0  0  0  0
    8.6906    0.9231   59.4755 O   0  0  0  0  0  0  0  0  0  0  0  0
  8  9  2  0  0  0
  8 11  1  0  0  0
  9 13  1  0  0  0
 10 12  1  0  0  0
 10 13  2  0  0  0
 11 12  2  0  0  0
 11 14  1  0  0  0
 12 16  1  0  0  0
 13 17  1  0  0  0
 14  5  1  0  0  0
 14 15  2  0  0  0
 20 21  2  0  0  0
 20 22  1  0  0  0
 20 19  1  0  0  0
 21 28  1  0  0  0
 21 29  1  0  0  0
 22 30  1  0  0  0
 22 31  2  0  0  0
 23 24  1  0  0  0
 23 29  2  0  0  0
 23 30  1  0  0  0
 24 25  1  0  0  0
 25 26  1  0  0  0
 26 27  1  0  0  0
  1  3  1  0  0  0
  1  5  1  0  0  0
  2  4  1  0  0  0
  2  5  1  0  0  0
 27 30  1  0  0  0
  3  6  1  0  0  0
  4  6  1  0  0  0
 19 18  1  0  0  0
 18  6  1  0  0  0
 15 16  1  0  0  0
  6  7  1  0  0  0
M  CHG 1   6   1
M  END
> <minimizedAffinity>
-8.51202

> <CNNscore>
0.4805622101

> <CNNaffinity>
7.1618142128

> <CNN_VS>
3.4416973591

> <CNNaffinity_variance>
0.1250872910

$$$$



 31 35  0  0  0  0  0  0  0  0999 V2000
   12.8143    2.2468   58.2001 C   0  0  0  0  0  0  0  0  0  0  0  0
   13.0448    0.2907   59.7835 C   0  0  0  0  0  0  0  0  0  0  0  0
   12.1679    3.0600   59.3142 C   0  0  0  0  0  0  0  0  0  0  0  0
   12.3968    1.1190   60.8856 C   0  0  0  0  0  0  0  0  0  0  0  0
   13.7695    1.1810   58.7611 C   0  0  0  0  0  0  0  0  0  0  0  0
   11.4495    2.1396   60.2831 N   0  0  0  0  0  0  0  0  0  0  0  0
   10.7610    1.6058   59.7241 H   0  0  0  0  0  0  0  0  0  0  0  0
   12.3523   -0.6198   56.3031 C   0  0  0  0  0  0  0  0  0  0  0  0
   12.1210   -1.4415   55.1909 C   0  0  0  0  0  0  0  0  0  0  0  0
   14.5123   -1.7445   54.8216 C   0  0  0  0  0  0  0  0  0  0  0  0
   13.6809   -0.3632   56.6720 C   0  0  0  0  0  0  0  0  0  0  0  0
   14.7050   -0.9254   55.9302 C   0  0  0  0  0  0  0  0  0  0  0  0
   13.1825   -1.9922   54.4653 C   0  0  0  0  0  0  0  0  0  0  0  0
   14.3570    0.3664   57.6691 C   0  0  0  0  0  0  0  0  0  0  0  0
   15.6852    0.2677   57.5596 N   0  0  0  0  0  0  0  0  0  0  0  0
   15.9024   -0.5507   56.4581 O   0  0  0  0  0  0  0  0  0  0  0  0
   12.9209   -2.7745   53.4088 F   0  0  0  0  0  0  0  0  0  0  0  0
   10.6949    2.8885   61.3191 C   0  0  0  0  0  0  0  0  0  0  0  0
    9.2658    2.3888   61.3836 C   0  0  0  0  0  0  0  0  0  0  0  0
    9.2266    0.8884   61.3905 C   0  0  0  0  0  0  0  0  0  0  0  0
    9.4336    0.0889   62.4549 C   0  0  0  0  0  0  0  0  0  0  0  0
    8.9102    0.2373   60.0807 C   0  0  0  0  0  0  0  0  0  0  0  0
    9.0416   -1.8462   61.2945 C   0  0  0  0  0  0  0  0  0  0  0  0
    8.8853   -3.3557   61.3051 C   0  0  0  0  0  0  0  0  0  0  0  0
    8.9938   -4.0076   59.9422 C   0  0  0  0  0  0  0  0  0  0  0  0
    8.0908   -3.2737   58.9717 C   0  0  0  0  0  0  0  0  0  0  0  0
    8.5616   -1.8369   58.8453 C   0  0  0  0  0  0  0  0  0  0  0  0
    9.8071    0.6178   63.8151 C   0  0  0  0  0  0  0  0  0  0  0  0
    9.3434   -1.2812   62.4208 N   0  0  0  0  0  0  0  0  0  0  0  0
    8.7983   -1.1546   60.1212 N   0  0  0  0  0  0  0  0  0  0  0  0
    8.7858    0.9217   59.0657 O   0  0  0  0  0  0  0  0  0  0  0  0
  8  9  2  0  0  0
  8 11  1  0  0  0
  9 13  1  0  0  0
 10 12  1  0  0  0
 10 13  2  0  0  0
 11 12  2  0  0  0
 11 14  1  0  0  0
 12 16  1  0  0  0
 13 17  1  0  0  0
 14  5  1  0  0  0
 14 15  2  0  0  0
 20 21  2  0  0  0
 20 22  1  0  0  0
 20 19  1  0  0  0
 21 28  1  0  0  0
 21 29  1  0  0  0
 22 30  1  0  0  0
 22 31  2  0  0  0
 23 24  1  0  0  0
 23 29  2  0  0  0
 23 30  1  0  0  0
 24 25  1  0  0  0
 25 26  1  0  0  0
 26 27  1  0  0  0
  1  3  1  0  0  0
  1  5  1  0  0  0
  2  4  1  0  0  0
  2  5  1  0  0  0
 27 30  1  0  0  0
  3  6  1  0  0  0
  4  6  1  0  0  0
 19 18  1  0  0  0
 18  6  1  0  0  0
 15 16  1  0  0  0
  6  7  1  0  0  0
M  CHG 1   6   1
M  END
> <minimizedAffinity>
-8.62287

> <CNNscore>
0.4113838077

> <CNNaffinity>
7.0480895042

> <CNN_VS>
2.8994698524

> <CNNaffinity_variance>
0.1297169477

$$$$



 31 35  0  0  0  0  0  0  0  0999 V2000
   11.3540    0.6409   60.2927 C   0  0  0  0  0  0  0  0  0  0  0  0
   13.0903   -0.4041   61.8027 C   0  0  0  0  0  0  0  0  0  0  0  0
   12.3950    0.7476   59.1857 C   0  0  0  0  0  0  0  0  0  0  0  0
   14.1179   -0.2897   60.6840 C   0  0  0  0  0  0  0  0  0  0  0  0
   11.6623   -0.5247   61.2464 C   0  0  0  0  0  0  0  0  0  0  0  0
   13.7821    0.8854   59.7848 N   0  0  0  0  0  0  0  0  0  0  0  0
   13.7562    1.7220   60.3938 H   0  0  0  0  0  0  0  0  0  0  0  0
    8.9781   -2.4902   61.7210 C   0  0  0  0  0  0  0  0  0  0  0  0
    7.8284   -3.1065   62.2348 C   0  0  0  0  0  0  0  0  0  0  0  0
    7.8470   -1.6713   64.2060 C   0  0  0  0  0  0  0  0  0  0  0  0
    9.5620   -1.4538   62.4640 C   0  0  0  0  0  0  0  0  0  0  0  0
    8.9866   -1.0819   63.6664 C   0  0  0  0  0  0  0  0  0  0  0  0
    7.2752   -2.7030   63.4545 C   0  0  0  0  0  0  0  0  0  0  0  0
   10.6675   -0.5893   62.3453 C   0  0  0  0  0  0  0  0  0  0  0  0
   10.7724    0.2482   63.3814 N   0  0  0  0  0  0  0  0  0  0  0  0
    9.7069   -0.0660   64.2159 O   0  0  0  0  0  0  0  0  0  0  0  0
    6.1741   -3.3156   63.9117 F   0  0  0  0  0  0  0  0  0  0  0  0
   14.8223    1.1201   58.7521 C   0  0  0  0  0  0  0  0  0  0  0  0
   15.0011   -0.1225   57.9035 C   0  0  0  0  0  0  0  0  0  0  0  0
   16.4003   -0.2031   57.3661 C   0  0  0  0  0  0  0  0  0  0  0  0
   16.8194    0.2304   56.1613 C   0  0  0  0  0  0  0  0  0  0  0  0
   17.4164   -0.8141   58.2792 C   0  0  0  0  0  0  0  0  0  0  0  0
   19.0095   -0.3282   56.5307 C   0  0  0  0  0  0  0  0  0  0  0  0
   20.4495   -0.3156   56.0519 C   0  0  0  0  0  0  0  0  0  0  0  0
   21.3582   -1.2921   56.7695 C   0  0  0  0  0  0  0  0  0  0  0  0
   21.1754   -1.1278   58.2647 C   0  0  0  0  0  0  0  0  0  0  0  0
   19.7414   -1.4637   58.6293 C   0  0  0  0  0  0  0  0  0  0  0  0
   15.8877    0.8183   55.1339 C   0  0  0  0  0  0  0  0  0  0  0  0
   18.1225    0.1744   55.7309 N   0  0  0  0  0  0  0  0  0  0  0  0
   18.7275   -0.8088   57.7970 N   0  0  0  0  0  0  0  0  0  0  0  0
   17.0682   -1.2907   59.3590 O   0  0  0  0  0  0  0  0  0  0  0  0
  8  9  2  0  0  0
  8 11  1  0  0  0
  9 13  1  0  0  0
 10 12  1  0  0  0
 10 13  2  0  0  0
 11 12  2  0  0  0
 11 14  1  0  0  0
 12 16  1  0  0  0
 13 17  1  0  0  0
 14  5  1  0  0  0
 14 15  2  0  0  0
 20 21  2  0  0  0
 20 22  1  0  0  0
 20 19  1  0  0  0
 21 28  1  0  0  0
 21 29  1  0  0  0
 22 30  1  0  0  0
 22 31  2  0  0  0
 23 24  1  0  0  0
 23 29  2  0  0  0
 23 30  1  0  0  0
 24 25  1  0  0  0
 25 26  1  0  0  0
 26 27  1  0  0  0
  1  3  1  0  0  0
  1  5  1  0  0  0
  2  4  1  0  0  0
  2  5  1  0  0  0
 27 30  1  0  0  0
  3  6  1  0  0  0
  4  6  1  0  0  0
 19 18  1  0  0  0
 18  6  1  0  0  0
 15 16  1  0  0  0
  6  7  1  0  0  0
M  CHG 1   6   1
M  END
> <minimizedAffinity>
-11.53613

> <CNNscore>
0.4070610702

> <CNNaffinity>
6.8584609032

> <CNN_VS>
2.7918124199

> <CNNaffinity_variance>
0.0801574588

$$$$



 31 35  0  0  0  0  0  0  0  0999 V2000
   14.2463   -0.5670   60.3160 C   0  0  0  0  0  0  0  0  0  0  0  0
   13.1436    1.3253   59.0552 C   0  0  0  0  0  0  0  0  0  0  0  0
   13.0724   -0.5918   61.2863 C   0  0  0  0  0  0  0  0  0  0  0  0
   11.9778    1.2859   60.0350 C   0  0  0  0  0  0  0  0  0  0  0  0
   13.8235   -0.0479   58.9322 C   0  0  0  0  0  0  0  0  0  0  0  0
   12.4500    0.7882   61.3883 N   0  0  0  0  0  0  0  0  0  0  0  0
   13.2057    1.4287   61.6884 H   0  0  0  0  0  0  0  0  0  0  0  0
   14.0444    0.6801   55.6589 C   0  0  0  0  0  0  0  0  0  0  0  0
   14.5029    0.9204   54.3559 C   0  0  0  0  0  0  0  0  0  0  0  0
   16.8105    0.4705   55.0030 C   0  0  0  0  0  0  0  0  0  0  0  0
   14.9859    0.3315   56.6384 C   0  0  0  0  0  0  0  0  0  0  0  0
   16.3207    0.2390   56.2849 C   0  0  0  0  0  0  0  0  0  0  0  0
   15.8608    0.8170   54.0364 C   0  0  0  0  0  0  0  0  0  0  0  0
   14.9845    0.0146   58.0106 C   0  0  0  0  0  0  0  0  0  0  0  0
   16.2098   -0.2525   58.4726 N   0  0  0  0  0  0  0  0  0  0  0  0
   17.0534   -0.1098   57.3779 O   0  0  0  0  0  0  0  0  0  0  0  0
   16.2600    1.0526   52.7787 F   0  0  0  0  0  0  0  0  0  0  0  0
   11.3809    0.8507   62.4162 C   0  0  0  0  0  0  0  0  0  0  0  0
   10.0528    1.1792   61.7647 C   0  0  0  0  0  0  0  0  0  0  0  0
    9.3647   -0.0709   61.2993 C   0  0  0  0  0  0  0  0  0  0  0  0
    9.1443   -1.1808   62.0305 C   0  0  0  0  0  0  0  0  0  0  0  0
    8.8696   -0.0568   59.8871 C   0  0  0  0  0  0  0  0  0  0  0  0
    8.0147   -2.2654   60.3594 C   0  0  0  0  0  0  0  0  0  0  0  0
    7.2173   -3.4743   59.9057 C   0  0  0  0  0  0  0  0  0  0  0  0
    7.1067   -3.6253   58.4027 C   0  0  0  0  0  0  0  0  0  0  0  0
    6.6679   -2.3036   57.8056 C   0  0  0  0  0  0  0  0  0  0  0  0
    7.7227   -1.2528   58.0970 C   0  0  0  0  0  0  0  0  0  0  0  0
    9.6348   -1.3388   63.4460 C   0  0  0  0  0  0  0  0  0  0  0  0
    8.4694   -2.2859   61.5726 N   0  0  0  0  0  0  0  0  0  0  0  0
    8.1617   -1.1954   59.4947 N   0  0  0  0  0  0  0  0  0  0  0  0
    9.1115    0.9045   59.1581 O   0  0  0  0  0  0  0  0  0  0  0  0
  8  9  2  0  0  0
  8 11  1  0  0  0
  9 13  1  0  0  0
 10 12  1  0  0  0
 10 13  2  0  0  0
 11 12  2  0  0  0
 11 14  1  0  0  0
 12 16  1  0  0  0
 13 17  1  0  0  0
 14  5  1  0  0  0
 14 15  2  0  0  0
 20 21  2  0  0  0
 20 22  1  0  0  0
 20 19  1  0  0  0
 21 28  1  0  0  0
 21 29  1  0  0  0
 22 30  1  0  0  0
 22 31  2  0  0  0
 23 24  1  0  0  0
 23 29  2  0  0  0
 23 30  1  0  0  0
 24 25  1  0  0  0
 25 26  1  0  0  0
 26 27  1  0  0  0
  1  3  1  0  0  0
  1  5  1  0  0  0
  2  4  1  0  0  0
  2  5  1  0  0  0
 27 30  1  0  0  0
  3  6  1  0  0  0
  4  6  1  0  0  0
 19 18  1  0  0  0
 18  6  1  0  0  0
 15 16  1  0  0  0
  6  7  1  0  0  0
M  CHG 1   6   1
M  END
> <minimizedAffinity>
-9.35305

> <CNNscore>
0.4054754376

> <CNNaffinity>
7.2023034096

> <CNN_VS>
2.9203572273

> <CNNaffinity_variance>
0.0821665451

$$$$



 19 22  0  0  0  0  0  0  0  0999 V2000
   15.9401   -0.1811   55.6873 C   0  0  0  0  0  0  0  0  0  0  0  0
   16.6048   -0.3284   56.8983 C   0  0  0  0  0  0  0  0  0  0  0  0
   14.5855    0.1188   55.6811 C   0  0  0  0  0  0  0  0  0  0  0  0
   15.9300   -0.1671   58.1230 C   0  0  0  0  0  0  0  0  0  0  0  0
   13.8740    0.2489   56.8867 C   0  0  0  0  0  0  0  0  0  0  0  0
   14.5373    0.1006   58.1320 C   0  0  0  0  0  0  0  0  0  0  0  0
   16.7691   -0.2662   59.3776 C   0  0  0  0  0  0  0  0  0  0  0  0
   10.4332   -0.9455   57.0283 C   0  0  0  0  0  0  0  0  0  0  0  0
   11.6127   -0.6189   56.1203 C   0  0  0  0  0  0  0  0  0  0  0  0
   10.9475   -0.6058   58.4151 C   0  0  0  0  0  0  0  0  0  0  0  0
   14.1454   -0.5109   60.5124 C   0  0  0  0  0  0  0  0  0  0  0  0
   12.6401    1.1009   59.2943 C   0  0  0  0  0  0  0  0  0  0  0  0
   15.2204    0.1819   61.3302 C   0  0  0  0  0  0  0  0  0  0  0  0
   12.3827    0.5304   56.8098 C   0  0  0  0  0  0  0  0  0  0  0  0
   11.6896    0.7095   58.1754 C   0  0  0  0  0  0  0  0  0  0  0  0
   13.8026    0.2275   59.3074 N   0  0  0  0  0  0  0  0  0  0  0  0
   16.3491    0.6565   60.4804 N   0  0  0  0  0  0  0  0  0  0  0  0
   17.1574    0.8330   61.0931 H   0  0  0  0  0  0  0  0  0  0  0  0
   16.1132    1.5751   60.0788 H   0  0  0  0  0  0  0  0  0  0  0  0
  1  2  1  0  0  0
  1  3  2  0  0  0
  2  4  2  0  0  0
  3  5  1  0  0  0
  4  6  1  0  0  0
  4  7  1  0  0  0
  5  6  2  0  0  0
  5 14  1  0  0  0
  6 16  1  0  0  0
  7 17  1  0  0  0
  8  9  1  0  0  0
  8 10  1  0  0  0
  9 14  1  0  0  0
 10 15  1  0  0  0
 11 13  1  0  0  0
 11 16  1  0  0  0
 12 15  1  0  0  0
 12 16  1  0  0  0
 13 17  1  0  0  0
 14 15  1  0  0  0
 17 18  1  0  0  0
 17 19  1  0  0  0
M  CHG 1  17   1
M  END
> <minimizedAffinity>
-8.02009

> <CNNscore>
0.6687120199

> <CNNaffinity>
5.7379317284

> <CNN_VS>
3.8370239735

> <CNNaffinity_variance>
0.1148361117

$$$$



 19 22  0  0  0  0  0  0  0  0999 V2000
    8.6297   -3.5264   61.0427 C   0  0  0  0  0  0  0  0  0  0  0  0
    7.3320   -3.9225   61.3413 C   0  0  0  0  0  0  0  0  0  0  0  0
    9.2978   -2.6648   61.9007 C   0  0  0  0  0  0  0  0  0  0  0  0
    6.6846   -3.4739   62.5079 C   0  0  0  0  0  0  0  0  0  0  0  0
    8.6661   -2.1685   63.0544 C   0  0  0  0  0  0  0  0  0  0  0  0
    7.3409   -2.5622   63.3736 C   0  0  0  0  0  0  0  0  0  0  0  0
    5.3058   -4.0348   62.7764 C   0  0  0  0  0  0  0  0  0  0  0  0
    9.3542    1.2569   64.0929 C   0  0  0  0  0  0  0  0  0  0  0  0
    9.7708    0.1161   63.1725 C   0  0  0  0  0  0  0  0  0  0  0  0
    8.1937    0.6742   64.8784 C   0  0  0  0  0  0  0  0  0  0  0  0
    5.3068   -1.8203   64.6006 C   0  0  0  0  0  0  0  0  0  0  0  0
    7.5987   -1.6959   65.6395 C   0  0  0  0  0  0  0  0  0  0  0  0
    4.5441   -3.0732   64.9917 C   0  0  0  0  0  0  0  0  0  0  0  0
    9.4360   -1.1910   63.9266 C   0  0  0  0  0  0  0  0  0  0  0  0
    8.6906   -0.7363   65.1975 C   0  0  0  0  0  0  0  0  0  0  0  0
    6.7409   -2.0466   64.5189 N   0  0  0  0  0  0  0  0  0  0  0  0
    5.0006   -4.2668   64.2246 N   0  0  0  0  0  0  0  0  0  0  0  0
    4.2734   -4.9916   64.2998 H   0  0  0  0  0  0  0  0  0  0  0  0
    5.8296   -4.6720   64.6822 H   0  0  0  0  0  0  0  0  0  0  0  0
  1  2  1  0  0  0
  1  3  2  0  0  0
  2  4  2  0  0  0
  3  5  1  0  0  0
  4  6  1  0  0  0
  4  7  1  0  0  0
  5  6  2  0  0  0
  5 14  1  0  0  0
  6 16  1  0  0  0
  7 17  1  0  0  0
  8  9  1  0  0  0
  8 10  1  0  0  0
  9 14  1  0  0  0
 10 15  1  0  0  0
 11 13  1  0  0  0
 11 16  1  0  0  0
 12 15  1  0  0  0
 12 16  1  0  0  0
 13 17  1  0  0  0
 14 15  1  0  0  0
 17 18  1  0  0  0
 17 19  1  0  0  0
M  CHG 1  17   1
M  END
> <minimizedAffinity>
-7.04490

> <CNNscore>
0.5813758373

> <CNNaffinity>
5.1240043640

> <CNN_VS>
2.9789724350

> <CNNaffinity_variance>
0.0457572974

$$$$



 19 22  0  0  0  0  0  0  0  0999 V2000
   12.3028    0.3762   56.4664 C   0  0  0  0  0  0  0  0  0  0  0  0
   13.5668    0.2928   57.0366 C   0  0  0  0  0  0  0  0  0  0  0  0
   11.1790    0.2982   57.2764 C   0  0  0  0  0  0  0  0  0  0  0  0
   13.7295    0.1418   58.4267 C   0  0  0  0  0  0  0  0  0  0  0  0
   11.3063    0.1094   58.6637 C   0  0  0  0  0  0  0  0  0  0  0  0
   12.5897    0.0212   59.2620 C   0  0  0  0  0  0  0  0  0  0  0  0
   15.1494    0.1473   58.9477 C   0  0  0  0  0  0  0  0  0  0  0  0
    8.8599   -1.9777   60.3798 C   0  0  0  0  0  0  0  0  0  0  0  0
    9.2048   -1.2551   59.0832 C   0  0  0  0  0  0  0  0  0  0  0  0
   10.0302   -1.6531   61.2898 C   0  0  0  0  0  0  0  0  0  0  0  0
   13.7824   -0.9096   61.2380 C   0  0  0  0  0  0  0  0  0  0  0  0
   11.6131    0.3499   61.4732 C   0  0  0  0  0  0  0  0  0  0  0  0
   15.0037   -0.0382   61.4689 C   0  0  0  0  0  0  0  0  0  0  0  0
   10.0357   -0.0160   59.4876 C   0  0  0  0  0  0  0  0  0  0  0  0
   10.2641   -0.1691   61.0047 C   0  0  0  0  0  0  0  0  0  0  0  0
   12.6813   -0.1739   60.6371 N   0  0  0  0  0  0  0  0  0  0  0  0
   15.3190    0.8065   60.2821 N   0  0  0  0  0  0  0  0  0  0  0  0
   16.2916    1.1321   60.3716 H   0  0  0  0  0  0  0  0  0  0  0  0
   14.7474    1.6628   60.3092 H   0  0  0  0  0  0  0  0  0  0  0  0
  1  2  1  0  0  0
  1  3  2  0  0  0
  2  4  2  0  0  0
  3  5  1  0  0  0
  4  6  1  0  0  0
  4  7  1  0  0  0
  5  6  2  0  0  0
  5 14  1  0  0  0
  6 16  1  0  0  0
  7 17  1  0  0  0
  8  9  1  0  0  0
  8 10  1  0  0  0
  9 14  1  0  0  0
 10 15  1  0  0  0
 11 13  1  0  0  0
 11 16  1  0  0  0
 12 15  1  0  0  0
 12 16  1  0  0  0
 13 17  1  0  0  0
 14 15  1  0  0  0
 17 18  1  0  0  0
 17 19  1  0  0  0
M  CHG 1  17   1
M  END
> <minimizedAffinity>
-7.18700

> <CNNscore>
0.5554438233

> <CNNaffinity>
5.5323357582

> <CNN_VS>
3.0729017258

> <CNNaffinity_variance>
0.0458099656

$$$$



 19 22  0  0  0  0  0  0  0  0999 V2000
    8.8545   -3.4599   61.1301 C   0  0  0  0  0  0  0  0  0  0  0  0
    9.3983   -2.3964   60.4206 C   0  0  0  0  0  0  0  0  0  0  0  0
    8.5155   -3.2913   62.4649 C   0  0  0  0  0  0  0  0  0  0  0  0
    9.6017   -1.1437   61.0295 C   0  0  0  0  0  0  0  0  0  0  0  0
    8.7410   -2.0642   63.1129 C   0  0  0  0  0  0  0  0  0  0  0  0
    9.2965   -0.9684   62.4033 C   0  0  0  0  0  0  0  0  0  0  0  0
   10.1201   -0.0345   60.1414 C   0  0  0  0  0  0  0  0  0  0  0  0
    9.7856   -2.0928   66.6049 C   0  0  0  0  0  0  0  0  0  0  0  0
    9.2377   -2.9241   65.4513 C   0  0  0  0  0  0  0  0  0  0  0  0
    9.9164   -0.7025   66.0104 C   0  0  0  0  0  0  0  0  0  0  0  0
   10.6052    1.1244   62.7207 C   0  0  0  0  0  0  0  0  0  0  0  0
    8.6366    0.5586   64.1877 C   0  0  0  0  0  0  0  0  0  0  0  0
   10.2447    2.0504   61.5731 C   0  0  0  0  0  0  0  0  0  0  0  0
    8.3920   -1.9602   64.5882 C   0  0  0  0  0  0  0  0  0  0  0  0
    8.6218   -0.5672   65.2079 C   0  0  0  0  0  0  0  0  0  0  0  0
    9.5147    0.2305   63.0760 N   0  0  0  0  0  0  0  0  0  0  0  0
    9.5725    1.3232   60.4593 N   0  0  0  0  0  0  0  0  0  0  0  0
    9.6277    1.9106   59.6156 H   0  0  0  0  0  0  0  0  0  0  0  0
    8.5661    1.2408   60.6617 H   0  0  0  0  0  0  0  0  0  0  0  0
  1  2  1  0  0  0
  1  3  2  0  0  0
  2  4  2  0  0  0
  3  5  1  0  0  0
  4  6  1  0  0  0
  4  7  1  0  0  0
  5  6  2  0  0  0
  5 14  1  0  0  0
  6 16  1  0  0  0
  7 17  1  0  0  0
  8  9  1  0  0  0
  8 10  1  0  0  0
  9 14  1  0  0  0
 10 15  1  0  0  0
 11 13  1  0  0  0
 11 16  1  0  0  0
 12 15  1  0  0  0
 12 16  1  0  0  0
 13 17  1  0  0  0
 14 15  1  0  0  0
 17 18  1  0  0  0
 17 19  1  0  0  0
M  CHG 1  17   1
M  END
> <minimizedAffinity>
-7.17450

> <CNNscore>
0.5202094913

> <CNNaffinity>
5.3897619247

> <CNN_VS>
2.8038053513

> <CNNaffinity_variance>
0.0639876202

$$$$



 19 22  0  0  0  0  0  0  0  0999 V2000
   10.9793   -0.5361   56.8754 C   0  0  0  0  0  0  0  0  0  0  0  0
   11.3195   -0.1644   58.1701 C   0  0  0  0  0  0  0  0  0  0  0  0
   11.9790   -0.7314   55.9334 C   0  0  0  0  0  0  0  0  0  0  0  0
   12.6645    0.0069   58.5483 C   0  0  0  0  0  0  0  0  0  0  0  0
   13.3296   -0.5315   56.2686 C   0  0  0  0  0  0  0  0  0  0  0  0
   13.6942   -0.1510   57.5859 C   0  0  0  0  0  0  0  0  0  0  0  0
   12.9239    0.3292   60.0031 C   0  0  0  0  0  0  0  0  0  0  0  0
   15.5606    0.9074   53.7711 C   0  0  0  0  0  0  0  0  0  0  0  0
   14.1871    0.2985   54.0259 C   0  0  0  0  0  0  0  0  0  0  0  0
   16.2298    0.8572   55.1323 C   0  0  0  0  0  0  0  0  0  0  0  0
   15.4730    1.0141   58.8789 C   0  0  0  0  0  0  0  0  0  0  0  0
   16.0233   -0.7208   57.1367 C   0  0  0  0  0  0  0  0  0  0  0  0
   15.4370    0.4508   60.2881 C   0  0  0  0  0  0  0  0  0  0  0  0
   14.3716   -0.7154   55.1780 C   0  0  0  0  0  0  0  0  0  0  0  0
   15.8300   -0.5279   55.6421 C   0  0  0  0  0  0  0  0  0  0  0  0
   15.0395    0.0467   57.8834 N   0  0  0  0  0  0  0  0  0  0  0  0
   14.1704   -0.2849   60.5628 N   0  0  0  0  0  0  0  0  0  0  0  0
   14.0684   -0.3745   61.5833 H   0  0  0  0  0  0  0  0  0  0  0  0
   14.2534   -1.2515   60.2171 H   0  0  0  0  0  0  0  0  0  0  0  0
  1  2  1  0  0  0
  1  3  2  0  0  0
  2  4  2  0  0  0
  3  5  1  0  0  0
  4  6  1  0  0  0
  4  7  1  0  0  0
  5  6  2  0  0  0
  5 14  1  0  0  0
  6 16  1  0  0  0
  7 17  1  0  0  0
  8  9  1  0  0  0
  8 10  1  0  0  0
  9 14  1  0  0  0
 10 15  1  0  0  0
 11 13  1  0  0  0
 11 16  1  0  0  0
 12 15  1  0  0  0
 12 16  1  0  0  0
 13 17  1  0  0  0
 14 15  1  0  0  0
 17 18  1  0  0  0
 17 19  1  0  0  0
M  CHG 1  17   1
M  END
> <minimizedAffinity>
-7.65868

> <CNNscore>
0.5113145113

> <CNNaffinity>
5.4737977982

> <CNN_VS>
2.7988321781

> <CNNaffinity_variance>
0.0461123735

$$$$



 19 22  0  0  0  0  0  0  0  0999 V2000
    4.5161   -7.2354   56.5772 C   0  0  0  0  0  0  0  0  0  0  0  0
    3.5485   -7.3748   57.5643 C   0  0  0  0  0  0  0  0  0  0  0  0
    5.5539   -6.3323   56.7575 C   0  0  0  0  0  0  0  0  0  0  0  0
    3.6079   -6.6229   58.7528 C   0  0  0  0  0  0  0  0  0  0  0  0
    5.6214   -5.5389   57.9161 C   0  0  0  0  0  0  0  0  0  0  0  0
    4.6409   -5.6680   58.9334 C   0  0  0  0  0  0  0  0  0  0  0  0
    2.5509   -6.9162   59.7941 C   0  0  0  0  0  0  0  0  0  0  0  0
    6.8378   -2.1151   57.6268 C   0  0  0  0  0  0  0  0  0  0  0  0
    6.6892   -3.4586   56.9231 C   0  0  0  0  0  0  0  0  0  0  0  0
    6.2338   -2.3628   58.9969 C   0  0  0  0  0  0  0  0  0  0  0  0
    3.5519   -4.4187   60.7899 C   0  0  0  0  0  0  0  0  0  0  0  0
    6.0537   -4.4325   60.4918 C   0  0  0  0  0  0  0  0  0  0  0  0
    3.0672   -5.4499   61.7930 C   0  0  0  0  0  0  0  0  0  0  0  0
    6.7567   -4.5353   58.0301 C   0  0  0  0  0  0  0  0  0  0  0  0
    6.7862   -3.7435   59.3528 C   0  0  0  0  0  0  0  0  0  0  0  0
    4.7317   -4.8620   60.0646 N   0  0  0  0  0  0  0  0  0  0  0  0
    3.0305   -6.8211   61.2101 N   0  0  0  0  0  0  0  0  0  0  0  0
    2.4273   -7.4050   61.8061 H   0  0  0  0  0  0  0  0  0  0  0  0
    3.9655   -7.2476   61.2778 H   0  0  0  0  0  0  0  0  0  0  0  0
  1  2  1  0  0  0
  1  3  2  0  0  0
  2  4  2  0  0  0
  3  5  1  0  0  0
  4  6  1  0  0  0
  4  7  1  0  0  0
  5  6  2  0  0  0
  5 14  1  0  0  0
  6 16  1  0  0  0
  7 17  1  0  0  0
  8  9  1  0  0  0
  8 10  1  0  0  0
  9 14  1  0  0  0
 10 15  1  0  0  0
 11 13  1  0  0  0
 11 16  1  0  0  0
 12 15  1  0  0  0
 12 16  1  0  0  0
 13 17  1  0  0  0
 14 15  1  0  0  0
 17 18  1  0  0  0
 17 19  1  0  0  0
M  CHG 1  17   1
M  END
> <minimizedAffinity>
-0.79161

> <CNNscore>
0.4405925870

> <CNNaffinity>
4.1232690811

> <CNN_VS>
1.8166817427

> <CNNaffinity_variance>
0.0434366204

$$$$



 19 22  0  0  0  0  0  0  0  0999 V2000
    9.3562   -0.9306   65.6373 C   0  0  0  0  0  0  0  0  0  0  0  0
    9.8708    0.1521   64.9351 C   0  0  0  0  0  0  0  0  0  0  0  0
    8.9619   -2.0689   64.9490 C   0  0  0  0  0  0  0  0  0  0  0  0
   10.0108    0.1112   63.5351 C   0  0  0  0  0  0  0  0  0  0  0  0
    9.0533   -2.1275   63.5473 C   0  0  0  0  0  0  0  0  0  0  0  0
    9.5756   -1.0304   62.8149 C   0  0  0  0  0  0  0  0  0  0  0  0
   10.6603    1.3117   62.8834 C   0  0  0  0  0  0  0  0  0  0  0  0
    6.4535   -3.8855   61.6938 C   0  0  0  0  0  0  0  0  0  0  0  0
    7.0467   -3.6106   63.0703 C   0  0  0  0  0  0  0  0  0  0  0  0
    7.3516   -3.0997   60.7563 C   0  0  0  0  0  0  0  0  0  0  0  0
    9.5094    0.0540   60.5759 C   0  0  0  0  0  0  0  0  0  0  0  0
    9.8214   -2.4327   60.8340 C   0  0  0  0  0  0  0  0  0  0  0  0
   10.8190    0.8031   60.4079 C   0  0  0  0  0  0  0  0  0  0  0  0
    8.5599   -3.3846   62.8507 C   0  0  0  0  0  0  0  0  0  0  0  0
    8.7437   -3.3872   61.3198 C   0  0  0  0  0  0  0  0  0  0  0  0
    9.6453   -1.1170   61.4274 N   0  0  0  0  0  0  0  0  0  0  0  0
   11.5277    0.9862   61.7062 N   0  0  0  0  0  0  0  0  0  0  0  0
   12.2229    1.7361   61.5871 H   0  0  0  0  0  0  0  0  0  0  0  0
   12.0790    0.1424   61.9179 H   0  0  0  0  0  0  0  0  0  0  0  0
  1  2  1  0  0  0
  1  3  2  0  0  0
  2  4  2  0  0  0
  3  5  1  0  0  0
  4  6  1  0  0  0
  4  7  1  0  0  0
  5  6  2  0  0  0
  5 14  1  0  0  0
  6 16  1  0  0  0
  7 17  1  0  0  0
  8  9  1  0  0  0
  8 10  1  0  0  0
  9 14  1  0  0  0
 10 15  1  0  0  0
 11 13  1  0  0  0
 11 16  1  0  0  0
 12 15  1  0  0  0
 12 16  1  0  0  0
 13 17  1  0  0  0
 14 15  1  0  0  0
 17 18  1  0  0  0
 17 19  1  0  0  0
M  CHG 1  17   1
M  END
> <minimizedAffinity>
-7.50425

> <CNNscore>
0.4300450087

> <CNNaffinity>
5.1768112183

> <CNN_VS>
2.2262618542

> <CNNaffinity_variance>
0.2041512430

$$$$



 19 22  0  0  0  0  0  0  0  0999 V2000
   12.7520   -1.5100   54.6538 C   0  0  0  0  0  0  0  0  0  0  0  0
   11.7278   -1.0164   55.4521 C   0  0  0  0  0  0  0  0  0  0  0  0
   14.0638   -1.4389   55.1003 C   0  0  0  0  0  0  0  0  0  0  0  0
   11.9956   -0.4543   56.7146 C   0  0  0  0  0  0  0  0  0  0  0  0
   14.3689   -0.8492   56.3395 C   0  0  0  0  0  0  0  0  0  0  0  0
   13.3349   -0.3395   57.1666 C   0  0  0  0  0  0  0  0  0  0  0  0
   10.7984   -0.0264   57.5339 C   0  0  0  0  0  0  0  0  0  0  0  0
   17.4383    1.0921   56.6480 C   0  0  0  0  0  0  0  0  0  0  0  0
   16.6479    0.1224   55.7778 C   0  0  0  0  0  0  0  0  0  0  0  0
   16.5534    1.2783   57.8668 C   0  0  0  0  0  0  0  0  0  0  0  0
   12.8879    1.3268   58.9602 C   0  0  0  0  0  0  0  0  0  0  0  0
   14.8662   -0.2299   59.0624 C   0  0  0  0  0  0  0  0  0  0  0  0
   11.6921    0.8208   59.7466 C   0  0  0  0  0  0  0  0  0  0  0  0
   15.8297   -0.7596   56.7482 C   0  0  0  0  0  0  0  0  0  0  0  0
   16.0723   -0.1468   58.1421 C   0  0  0  0  0  0  0  0  0  0  0  0
   13.6711    0.2454   58.3842 N   0  0  0  0  0  0  0  0  0  0  0  0
   10.9473   -0.2390   59.0093 N   0  0  0  0  0  0  0  0  0  0  0  0
   10.0113   -0.3224   59.4300 H   0  0  0  0  0  0  0  0  0  0  0  0
   11.3961   -1.1512   59.1740 H   0  0  0  0  0  0  0  0  0  0  0  0
  1  2  1  0  0  0
  1  3  2  0  0  0
  2  4  2  0  0  0
  3  5  1  0  0  0
  4  6  1  0  0  0
  4  7  1  0  0  0
  5  6  2  0  0  0
  5 14  1  0  0  0
  6 16  1  0  0  0
  7 17  1  0  0  0
  8  9  1  0  0  0
  8 10  1  0  0  0
  9 14  1  0  0  0
 10 15  1  0  0  0
 11 13  1  0  0  0
 11 16  1  0  0  0
 12 15  1  0  0  0
 12 16  1  0  0  0
 13 17  1  0  0  0
 14 15  1  0  0  0
 17 18  1  0  0  0
 17 19  1  0  0  0
M  CHG 1  17   1
M  END
> <minimizedAffinity>
-8.01764

> <CNNscore>
0.4186039269

> <CNNaffinity>
5.2866787910

> <CNN_VS>
2.2130246162

> <CNNaffinity_variance>
0.1087871045

$$$$



 19 22  0  0  0  0  0  0  0  0999 V2000
   16.4354   -0.7832   59.0344 C   0  0  0  0  0  0  0  0  0  0  0  0
   15.5226   -0.6102   60.0674 C   0  0  0  0  0  0  0  0  0  0  0  0
   16.0246   -0.6092   57.7206 C   0  0  0  0  0  0  0  0  0  0  0  0
   14.1875   -0.2492   59.8058 C   0  0  0  0  0  0  0  0  0  0  0  0
   14.6891   -0.2858   57.4233 C   0  0  0  0  0  0  0  0  0  0  0  0
   13.7441   -0.1065   58.4662 C   0  0  0  0  0  0  0  0  0  0  0  0
   13.3032   -0.0049   61.0083 C   0  0  0  0  0  0  0  0  0  0  0  0
   13.1636   -1.7134   54.4367 C   0  0  0  0  0  0  0  0  0  0  0  0
   14.4650   -1.4886   55.1969 C   0  0  0  0  0  0  0  0  0  0  0  0
   12.1206   -1.0419   55.3110 C   0  0  0  0  0  0  0  0  0  0  0  0
   11.3076   -0.2257   58.9589 C   0  0  0  0  0  0  0  0  0  0  0  0
   12.1887    0.9525   56.9137 C   0  0  0  0  0  0  0  0  0  0  0  0
   11.0441    0.7159   60.1201 C   0  0  0  0  0  0  0  0  0  0  0  0
   14.2932   -0.1565   55.9620 C   0  0  0  0  0  0  0  0  0  0  0  0
   12.8249    0.2505   55.7258 C   0  0  0  0  0  0  0  0  0  0  0  0
   12.4278    0.2055   58.1381 N   0  0  0  0  0  0  0  0  0  0  0  0
   12.2998    1.0929   60.8289 N   0  0  0  0  0  0  0  0  0  0  0  0
   12.0444    1.4652   61.7541 H   0  0  0  0  0  0  0  0  0  0  0  0
   12.7471    1.8804   60.3386 H   0  0  0  0  0  0  0  0  0  0  0  0
  1  2  1  0  0  0
  1  3  2  0  0  0
  2  4  2  0  0  0
  3  5  1  0  0  0
  4  6  1  0  0  0
  4  7  1  0  0  0
  5  6  2  0  0  0
  5 14  1  0  0  0
  6 16  1  0  0  0
  7 17  1  0  0  0
  8  9  1  0  0  0
  8 10  1  0  0  0
  9 14  1  0  0  0
 10 15  1  0  0  0
 11 13  1  0  0  0
 11 16  1  0  0  0
 12 15  1  0  0  0
 12 16  1  0  0  0
 13 17  1  0  0  0
 14 15  1  0  0  0
 17 18  1  0  0  0
 17 19  1  0  0  0
M  CHG 1  17   1
M  END
> <minimizedAffinity>
-8.17952

> <CNNscore>
0.4117331505

> <CNNaffinity>
5.3506107330

> <CNN_VS>
2.2030239105

> <CNNaffinity_variance>
0.1673882902

$$$$



 32 35  0  0  0  0  0  0  0  0999 V2000
   16.0356    0.2203   60.1952 C   0  0  0  0  0  0  0  0  0  0  0  0
   14.3931    0.2138   58.2746 C   0  0  0  0  0  0  0  0  0  0  0  0
   14.8847   -0.0041   61.1675 C   0  0  0  0  0  0  0  0  0  0  0  0
   13.2547   -0.0109   59.2615 C   0  0  0  0  0  0  0  0  0  0  0  0
   15.7195   -0.3541   58.8048 C   0  0  0  0  0  0  0  0  0  0  0  0
   13.6208    0.5925   60.5964 N   0  0  0  0  0  0  0  0  0  0  0  0
   13.7990    1.5942   60.4402 H   0  0  0  0  0  0  0  0  0  0  0  0
   18.9069   -1.4169   58.7355 C   0  0  0  0  0  0  0  0  0  0  0  0
   20.2472   -1.6483   58.3951 C   0  0  0  0  0  0  0  0  0  0  0  0
   20.0701   -0.2291   56.4200 C   0  0  0  0  0  0  0  0  0  0  0  0
   18.1472   -0.5811   57.9039 C   0  0  0  0  0  0  0  0  0  0  0  0
   18.7440   -0.0213   56.7878 C   0  0  0  0  0  0  0  0  0  0  0  0
   20.8158   -1.0644   57.2583 C   0  0  0  0  0  0  0  0  0  0  0  0
   16.8286   -0.0887   57.8556 C   0  0  0  0  0  0  0  0  0  0  0  0
   16.6209    0.7081   56.8031 N   0  0  0  0  0  0  0  0  0  0  0  0
   17.8352    0.7490   56.1292 O   0  0  0  0  0  0  0  0  0  0  0  0
   22.1013   -1.3082   56.9671 F   0  0  0  0  0  0  0  0  0  0  0  0
   12.4789    0.5128   61.5724 C   0  0  0  0  0  0  0  0  0  0  0  0
   11.7965   -0.8370   61.4309 C   0  0  0  0  0  0  0  0  0  0  0  0
   10.2975   -0.6812   61.2190 C   0  0  0  0  0  0  0  0  0  0  0  0
    9.8314   -1.7597   60.4198 O   0  0  0  0  0  0  0  0  0  0  0  0
    7.8426   -3.7509   62.7647 C   0  0  0  0  0  0  0  0  0  0  0  0
    8.8845   -2.9899   62.2347 C   0  0  0  0  0  0  0  0  0  0  0  0
    6.6334   -3.5450   60.6832 C   0  0  0  0  0  0  0  0  0  0  0  0
    6.7171   -4.0285   61.9889 C   0  0  0  0  0  0  0  0  0  0  0  0
    8.8008   -2.5064   60.9290 C   0  0  0  0  0  0  0  0  0  0  0  0
    7.6753   -2.7839   60.1533 C   0  0  0  0  0  0  0  0  0  0  0  0
    5.6318   -4.8238   62.5409 C   0  0  0  0  0  0  0  0  0  0  0  0
    4.4673   -5.1260   61.6430 C   0  0  0  0  0  0  0  0  0  0  0  0
    5.5933   -5.2645   63.6916 O   0  0  0  0  0  0  0  0  0  0  0  0
    6.7728   -3.0678   57.9714 C   0  0  0  0  0  0  0  0  0  0  0  0
    7.5827   -2.3195   58.8760 O   0  0  0  0  0  0  0  0  0  0  0  0
  8  9  2  0  0  0
  8 11  1  0  0  0
 22 23  2  0  0  0
 22 25  1  0  0  0
 23 26  1  0  0  0
  9 13  1  0  0  0
 24 25  2  0  0  0
 24 27  1  0  0  0
 10 12  1  0  0  0
 10 13  2  0  0  0
 11 12  2  0  0  0
 11 14  1  0  0  0
 25 28  1  0  0  0
 12 16  1  0  0  0
 26 27  2  0  0  0
 26 21  1  0  0  0
 27 32  1  0  0  0
 13 17  1  0  0  0
 14  5  1  0  0  0
 14 15  2  0  0  0
 28 29  1  0  0  0
 28 30  2  0  0  0
  1  3  1  0  0  0
  1  5  1  0  0  0
  2  4  1  0  0  0
  2  5  1  0  0  0
  3  6  1  0  0  0
  4  6  1  0  0  0
 31 32  1  0  0  0
 19 18  1  0  0  0
 19 20  1  0  0  0
 18  6  1  0  0  0
 20 21  1  0  0  0
 15 16  1  0  0  0
  6  7  1  0  0  0
M  CHG 1   6   1
M  END
> <minimizedAffinity>
-9.83360

> <CNNscore>
0.7782685757

> <CNNaffinity>
6.8240499496

> <CNN_VS>
5.3109436035

> <CNNaffinity_variance>
0.0220691226

$$$$



 32 35  0  0  0  0  0  0  0  0999 V2000
   15.9220    0.1101   60.3552 C   0  0  0  0  0  0  0  0  0  0  0  0
   14.2038    0.1134   58.5019 C   0  0  0  0  0  0  0  0  0  0  0  0
   14.8149   -0.1521   61.3680 C   0  0  0  0  0  0  0  0  0  0  0  0
   13.1098   -0.1492   59.5289 C   0  0  0  0  0  0  0  0  0  0  0  0
   15.5592   -0.4426   58.9673 C   0  0  0  0  0  0  0  0  0  0  0  0
   13.5197    0.4343   60.8599 N   0  0  0  0  0  0  0  0  0  0  0  0
   13.6757    1.4417   60.7167 H   0  0  0  0  0  0  0  0  0  0  0  0
   18.7775   -1.3938   58.7883 C   0  0  0  0  0  0  0  0  0  0  0  0
   20.1124   -1.5789   58.4017 C   0  0  0  0  0  0  0  0  0  0  0  0
   19.8176   -0.1706   56.4330 C   0  0  0  0  0  0  0  0  0  0  0  0
   17.9607   -0.5865   57.9829 C   0  0  0  0  0  0  0  0  0  0  0  0
   18.4986   -0.0084   56.8464 C   0  0  0  0  0  0  0  0  0  0  0  0
   20.6206   -0.9778   57.2455 C   0  0  0  0  0  0  0  0  0  0  0  0
   16.6249   -0.1405   57.9800 C   0  0  0  0  0  0  0  0  0  0  0  0
   16.3532    0.6465   56.9348 N   0  0  0  0  0  0  0  0  0  0  0  0
   17.5413    0.7284   56.2191 O   0  0  0  0  0  0  0  0  0  0  0  0
   21.9030   -1.1773   56.9101 F   0  0  0  0  0  0  0  0  0  0  0  0
   12.4195    0.3169   61.8790 C   0  0  0  0  0  0  0  0  0  0  0  0
   11.3609   -0.6413   61.3604 C   0  0  0  0  0  0  0  0  0  0  0  0
    9.9910   -0.3215   61.9411 C   0  0  0  0  0  0  0  0  0  0  0  0
    9.8361   -1.0227   63.1672 O   0  0  0  0  0  0  0  0  0  0  0  0
    6.9860   -3.2785   62.7119 C   0  0  0  0  0  0  0  0  0  0  0  0
    8.2110   -2.6437   62.5072 C   0  0  0  0  0  0  0  0  0  0  0  0
    6.5990   -1.9034   64.6604 C   0  0  0  0  0  0  0  0  0  0  0  0
    6.1799   -2.9083   63.7885 C   0  0  0  0  0  0  0  0  0  0  0  0
    8.6301   -1.6388   63.3792 C   0  0  0  0  0  0  0  0  0  0  0  0
    7.8241   -1.2687   64.4557 C   0  0  0  0  0  0  0  0  0  0  0  0
    4.9017   -3.5687   64.0005 C   0  0  0  0  0  0  0  0  0  0  0  0
    3.7766   -2.7415   64.5511 C   0  0  0  0  0  0  0  0  0  0  0  0
    4.6733   -4.7575   63.7669 O   0  0  0  0  0  0  0  0  0  0  0  0
    8.1543   -0.5785   66.7074 C   0  0  0  0  0  0  0  0  0  0  0  0
    8.2210   -0.2871   65.3128 O   0  0  0  0  0  0  0  0  0  0  0  0
  8  9  2  0  0  0
  8 11  1  0  0  0
 22 23  2  0  0  0
 22 25  1  0  0  0
 23 26  1  0  0  0
  9 13  1  0  0  0
 24 25  2  0  0  0
 24 27  1  0  0  0
 10 12  1  0  0  0
 10 13  2  0  0  0
 11 12  2  0  0  0
 11 14  1  0  0  0
 25 28  1  0  0  0
 12 16  1  0  0  0
 26 27  2  0  0  0
 26 21  1  0  0  0
 27 32  1  0  0  0
 13 17  1  0  0  0
 14  5  1  0  0  0
 14 15  2  0  0  0
 28 29  1  0  0  0
 28 30  2  0  0  0
  1  3  1  0  0  0
  1  5  1  0  0  0
  2  4  1  0  0  0
  2  5  1  0  0  0
  3  6  1  0  0  0
  4  6  1  0  0  0
 31 32  1  0  0  0
 19 18  1  0  0  0
 19 20  1  0  0  0
 18  6  1  0  0  0
 20 21  1  0  0  0
 15 16  1  0  0  0
  6  7  1  0  0  0
M  CHG 1   6   1
M  END
> <minimizedAffinity>
-10.18011

> <CNNscore>
0.7113063335

> <CNNaffinity>
6.9539871216

> <CNN_VS>
4.9464149475

> <CNNaffinity_variance>
0.1374341249

$$$$



 32 35  0  0  0  0  0  0  0  0999 V2000
   15.5144   -0.4452   58.0912 C   0  0  0  0  0  0  0  0  0  0  0  0
   17.0912    0.3747   59.8880 C   0  0  0  0  0  0  0  0  0  0  0  0
   14.3631   -0.3829   59.0867 C   0  0  0  0  0  0  0  0  0  0  0  0
   15.9277    0.4311   60.8697 C   0  0  0  0  0  0  0  0  0  0  0  0
   16.6162    0.5689   58.4390 C   0  0  0  0  0  0  0  0  0  0  0  0
   14.8942   -0.5996   60.4834 N   0  0  0  0  0  0  0  0  0  0  0  0
   15.3594   -1.5178   60.4945 H   0  0  0  0  0  0  0  0  0  0  0  0
   19.3946   -1.3213   58.4699 C   0  0  0  0  0  0  0  0  0  0  0  0
   20.6202   -1.9276   58.1595 C   0  0  0  0  0  0  0  0  0  0  0  0
   20.8266   -0.6336   56.1030 C   0  0  0  0  0  0  0  0  0  0  0  0
   18.8869   -0.3616   57.5819 C   0  0  0  0  0  0  0  0  0  0  0  0
   19.6085   -0.0522   56.4421 C   0  0  0  0  0  0  0  0  0  0  0  0
   21.3210   -1.5886   56.9974 C   0  0  0  0  0  0  0  0  0  0  0  0
   17.7515    0.4664   57.4892 C   0  0  0  0  0  0  0  0  0  0  0  0
   17.7634    1.2256   56.3895 N   0  0  0  0  0  0  0  0  0  0  0  0
   18.9402    0.8952   55.7289 O   0  0  0  0  0  0  0  0  0  0  0  0
   22.4906   -2.1891   56.7363 F   0  0  0  0  0  0  0  0  0  0  0  0
   13.7828   -0.6759   61.4943 C   0  0  0  0  0  0  0  0  0  0  0  0
   12.4865   -0.2240   60.8439 C   0  0  0  0  0  0  0  0  0  0  0  0
   11.3784   -1.2474   61.0459 C   0  0  0  0  0  0  0  0  0  0  0  0
   10.1221   -0.5911   60.9456 O   0  0  0  0  0  0  0  0  0  0  0  0
    8.1649   -1.3346   63.9515 C   0  0  0  0  0  0  0  0  0  0  0  0
    8.8754   -1.5093   62.7639 C   0  0  0  0  0  0  0  0  0  0  0  0
    8.5558    1.0468   63.8349 C   0  0  0  0  0  0  0  0  0  0  0  0
    8.0050   -0.0565   64.4869 C   0  0  0  0  0  0  0  0  0  0  0  0
    9.4261   -0.4060   62.1118 C   0  0  0  0  0  0  0  0  0  0  0  0
    9.2663    0.8719   62.6474 C   0  0  0  0  0  0  0  0  0  0  0  0
    7.2625    0.1258   65.7240 C   0  0  0  0  0  0  0  0  0  0  0  0
    8.0465    0.4520   66.9619 C   0  0  0  0  0  0  0  0  0  0  0  0
    6.0385    0.0281   65.8342 O   0  0  0  0  0  0  0  0  0  0  0  0
    9.0541    2.5045   60.9311 C   0  0  0  0  0  0  0  0  0  0  0  0
    9.7972    1.9577   62.0188 O   0  0  0  0  0  0  0  0  0  0  0  0
  8  9  2  0  0  0
  8 11  1  0  0  0
 22 23  2  0  0  0
 22 25  1  0  0  0
 23 26  1  0  0  0
  9 13  1  0  0  0
 24 25  2  0  0  0
 24 27  1  0  0  0
 10 12  1  0  0  0
 10 13  2  0  0  0
 11 12  2  0  0  0
 11 14  1  0  0  0
 25 28  1  0  0  0
 12 16  1  0  0  0
 26 27  2  0  0  0
 26 21  1  0  0  0
 27 32  1  0  0  0
 13 17  1  0  0  0
 14  5  1  0  0  0
 14 15  2  0  0  0
 28 29  1  0  0  0
 28 30  2  0  0  0
  1  3  1  0  0  0
  1  5  1  0  0  0
  2  4  1  0  0  0
  2  5  1  0  0  0
  3  6  1  0  0  0
  4  6  1  0  0  0
 31 32  1  0  0  0
 19 18  1  0  0  0
 19 20  1  0  0  0
 18  6  1  0  0  0
 20 21  1  0  0  0
 15 16  1  0  0  0
  6  7  1  0  0  0
M  CHG 1   6   1
M  END
> <minimizedAffinity>
-8.79995

> <CNNscore>
0.6571121216

> <CNNaffinity>
7.0255250931

> <CNN_VS>
4.6165575981

> <CNNaffinity_variance>
0.0834990889

$$$$



 32 35  0  0  0  0  0  0  0  0999 V2000
   15.5920    0.2380   59.7011 C   0  0  0  0  0  0  0  0  0  0  0  0
   14.1495    0.2660   57.6263 C   0  0  0  0  0  0  0  0  0  0  0  0
   14.3476    0.0180   60.5516 C   0  0  0  0  0  0  0  0  0  0  0  0
   12.9161    0.0455   58.4925 C   0  0  0  0  0  0  0  0  0  0  0  0
   15.4105   -0.3210   58.2807 C   0  0  0  0  0  0  0  0  0  0  0  0
   13.1531    0.6335   59.8630 N   0  0  0  0  0  0  0  0  0  0  0  0
   13.3563    1.6344   59.7350 H   0  0  0  0  0  0  0  0  0  0  0  0
   18.6164   -1.2695   58.6219 C   0  0  0  0  0  0  0  0  0  0  0  0
   19.9932   -1.4675   58.4456 C   0  0  0  0  0  0  0  0  0  0  0  0
   19.9978   -0.1488   56.3945 C   0  0  0  0  0  0  0  0  0  0  0  0
   17.9306   -0.5012   57.6696 C   0  0  0  0  0  0  0  0  0  0  0  0
   18.6327    0.0275   56.6006 C   0  0  0  0  0  0  0  0  0  0  0  0
   20.6689   -0.9168   57.3517 C   0  0  0  0  0  0  0  0  0  0  0  0
   16.6115   -0.0598   57.4494 C   0  0  0  0  0  0  0  0  0  0  0  0
   16.5001    0.6792   56.3417 N   0  0  0  0  0  0  0  0  0  0  0  0
   17.7813    0.7329   55.8066 O   0  0  0  0  0  0  0  0  0  0  0  0
   21.9860   -1.1270   57.2189 F   0  0  0  0  0  0  0  0  0  0  0  0
   11.9188    0.5581   60.7194 C   0  0  0  0  0  0  0  0  0  0  0  0
   10.9842    1.6962   60.3469 C   0  0  0  0  0  0  0  0  0  0  0  0
   10.2800    2.2596   61.5729 C   0  0  0  0  0  0  0  0  0  0  0  0
    9.1224    1.4792   61.8376 O   0  0  0  0  0  0  0  0  0  0  0  0
   10.0338   -1.3138   64.0256 C   0  0  0  0  0  0  0  0  0  0  0  0
    9.9800   -0.4725   62.9144 C   0  0  0  0  0  0  0  0  0  0  0  0
    8.4603    0.1105   65.1801 C   0  0  0  0  0  0  0  0  0  0  0  0
    9.2739   -1.0224   65.1584 C   0  0  0  0  0  0  0  0  0  0  0  0
    9.1664    0.6604   62.9360 C   0  0  0  0  0  0  0  0  0  0  0  0
    8.4067    0.9518   64.0688 C   0  0  0  0  0  0  0  0  0  0  0  0
    9.3284   -1.9008   66.3162 C   0  0  0  0  0  0  0  0  0  0  0  0
    8.6873   -1.4172   67.5845 C   0  0  0  0  0  0  0  0  0  0  0  0
    9.8653   -3.0104   66.3365 O   0  0  0  0  0  0  0  0  0  0  0  0
    6.2944    1.8864   64.6351 C   0  0  0  0  0  0  0  0  0  0  0  0
    7.6064    2.0537   64.1014 O   0  0  0  0  0  0  0  0  0  0  0  0
  8  9  2  0  0  0
  8 11  1  0  0  0
 22 23  2  0  0  0
 22 25  1  0  0  0
 23 26  1  0  0  0
  9 13  1  0  0  0
 24 25  2  0  0  0
 24 27  1  0  0  0
 10 12  1  0  0  0
 10 13  2  0  0  0
 11 12  2  0  0  0
 11 14  1  0  0  0
 25 28  1  0  0  0
 12 16  1  0  0  0
 26 27  2  0  0  0
 26 21  1  0  0  0
 27 32  1  0  0  0
 13 17  1  0  0  0
 14  5  1  0  0  0
 14 15  2  0  0  0
 28 29  1  0  0  0
 28 30  2  0  0  0
  1  3  1  0  0  0
  1  5  1  0  0  0
  2  4  1  0  0  0
  2  5  1  0  0  0
  3  6  1  0  0  0
  4  6  1  0  0  0
 31 32  1  0  0  0
 19 18  1  0  0  0
 19 20  1  0  0  0
 18  6  1  0  0  0
 20 21  1  0  0  0
 15 16  1  0  0  0
  6  7  1  0  0  0
M  CHG 1   6   1
M  END
> <minimizedAffinity>
-9.27110

> <CNNscore>
0.6106445193

> <CNNaffinity>
7.0023488998

> <CNN_VS>
4.2759461403

> <CNNaffinity_variance>
0.1165792122

$$$$



 32 35  0  0  0  0  0  0  0  0999 V2000
   15.8965    0.3982   59.6698 C   0  0  0  0  0  0  0  0  0  0  0  0
   14.5043    0.2339   57.5670 C   0  0  0  0  0  0  0  0  0  0  0  0
   14.6411    0.1851   60.5059 C   0  0  0  0  0  0  0  0  0  0  0  0
   13.2596    0.0218   58.4192 C   0  0  0  0  0  0  0  0  0  0  0  0
   15.7706   -0.2590   58.2858 C   0  0  0  0  0  0  0  0  0  0  0  0
   13.4411    0.7067   59.7526 N   0  0  0  0  0  0  0  0  0  0  0  0
   13.6091    1.7044   59.5632 H   0  0  0  0  0  0  0  0  0  0  0  0
   18.9206   -1.4038   58.5317 C   0  0  0  0  0  0  0  0  0  0  0  0
   20.2835   -1.6640   58.3302 C   0  0  0  0  0  0  0  0  0  0  0  0
   20.3519   -0.2042   56.3781 C   0  0  0  0  0  0  0  0  0  0  0  0
   18.2741   -0.5330   57.6423 C   0  0  0  0  0  0  0  0  0  0  0  0
   18.9996    0.0315   56.6078 C   0  0  0  0  0  0  0  0  0  0  0  0
   20.9837   -1.0743   57.2727 C   0  0  0  0  0  0  0  0  0  0  0  0
   16.9804   -0.0053   57.4652 C   0  0  0  0  0  0  0  0  0  0  0  0
   16.9052    0.8161   56.4138 N   0  0  0  0  0  0  0  0  0  0  0  0
   18.1849    0.8375   55.8732 O   0  0  0  0  0  0  0  0  0  0  0  0
   22.2866   -1.3464   57.1141 F   0  0  0  0  0  0  0  0  0  0  0  0
   12.1902    0.6386   60.5854 C   0  0  0  0  0  0  0  0  0  0  0  0
   11.1060   -0.0765   59.7975 C   0  0  0  0  0  0  0  0  0  0  0  0
    9.8823   -0.3498   60.6600 C   0  0  0  0  0  0  0  0  0  0  0  0
   10.1027   -1.5377   61.4080 O   0  0  0  0  0  0  0  0  0  0  0  0
    7.0752   -3.5948   61.5538 C   0  0  0  0  0  0  0  0  0  0  0  0
    8.2068   -2.9473   61.0581 C   0  0  0  0  0  0  0  0  0  0  0  0
    7.5162   -2.6854   63.7483 C   0  0  0  0  0  0  0  0  0  0  0  0
    6.7299   -3.4638   62.8989 C   0  0  0  0  0  0  0  0  0  0  0  0
    8.9931   -2.1688   61.9074 C   0  0  0  0  0  0  0  0  0  0  0  0
    8.6478   -2.0379   63.2524 C   0  0  0  0  0  0  0  0  0  0  0  0
    5.5488   -4.1372   63.4152 C   0  0  0  0  0  0  0  0  0  0  0  0
    4.5644   -3.3125   64.1926 C   0  0  0  0  0  0  0  0  0  0  0  0
    5.2970   -5.3349   63.2671 O   0  0  0  0  0  0  0  0  0  0  0  0
    9.4314   -1.6594   65.4657 C   0  0  0  0  0  0  0  0  0  0  0  0
    9.4063   -1.2786   64.0915 O   0  0  0  0  0  0  0  0  0  0  0  0
  8  9  2  0  0  0
  8 11  1  0  0  0
 22 23  2  0  0  0
 22 25  1  0  0  0
 23 26  1  0  0  0
  9 13  1  0  0  0
 24 25  2  0  0  0
 24 27  1  0  0  0
 10 12  1  0  0  0
 10 13  2  0  0  0
 11 12  2  0  0  0
 11 14  1  0  0  0
 25 28  1  0  0  0
 12 16  1  0  0  0
 26 27  2  0  0  0
 26 21  1  0  0  0
 27 32  1  0  0  0
 13 17  1  0  0  0
 14  5  1  0  0  0
 14 15  2  0  0  0
 28 29  1  0  0  0
 28 30  2  0  0  0
  1  3  1  0  0  0
  1  5  1  0  0  0
  2  4  1  0  0  0
  2  5  1  0  0  0
  3  6  1  0  0  0
  4  6  1  0  0  0
 31 32  1  0  0  0
 19 18  1  0  0  0
 19 20  1  0  0  0
 18  6  1  0  0  0
 20 21  1  0  0  0
 15 16  1  0  0  0
  6  7  1  0  0  0
M  CHG 1   6   1
M  END
> <minimizedAffinity>
-10.10381

> <CNNscore>
0.5865476131

> <CNNaffinity>
6.6749982834

> <CNN_VS>
3.9152042866

> <CNNaffinity_variance>
0.0461959019

$$$$



 32 35  0  0  0  0  0  0  0  0999 V2000
   16.0593    0.3490   60.5396 C   0  0  0  0  0  0  0  0  0  0  0  0
   14.3807   -0.2102   58.7350 C   0  0  0  0  0  0  0  0  0  0  0  0
   15.0021    0.0624   61.5982 C   0  0  0  0  0  0  0  0  0  0  0  0
   13.3364   -0.4928   59.8075 C   0  0  0  0  0  0  0  0  0  0  0  0
   15.8055   -0.4581   59.2561 C   0  0  0  0  0  0  0  0  0  0  0  0
   13.6321    0.3436   61.0293 N   0  0  0  0  0  0  0  0  0  0  0  0
   13.6200    1.3298   60.7346 H   0  0  0  0  0  0  0  0  0  0  0  0
   18.9805   -1.4740   58.8311 C   0  0  0  0  0  0  0  0  0  0  0  0
   20.2835   -1.6719   58.3527 C   0  0  0  0  0  0  0  0  0  0  0  0
   19.9030   -0.1683   56.4710 C   0  0  0  0  0  0  0  0  0  0  0  0
   18.1363   -0.6120   58.1158 C   0  0  0  0  0  0  0  0  0  0  0  0
   18.6170    0.0050   56.9741 C   0  0  0  0  0  0  0  0  0  0  0  0
   20.7339   -1.0303   57.1943 C   0  0  0  0  0  0  0  0  0  0  0  0
   16.8149   -0.1357   58.2175 C   0  0  0  0  0  0  0  0  0  0  0  0
   16.4989    0.7045   57.2275 N   0  0  0  0  0  0  0  0  0  0  0  0
   17.6418    0.7918   56.4422 O   0  0  0  0  0  0  0  0  0  0  0  0
   21.9873   -1.2436   56.7697 F   0  0  0  0  0  0  0  0  0  0  0  0
   12.5577    0.2002   62.0724 C   0  0  0  0  0  0  0  0  0  0  0  0
   11.4202    1.1539   61.7496 C   0  0  0  0  0  0  0  0  0  0  0  0
   10.1099    0.4063   61.5481 C   0  0  0  0  0  0  0  0  0  0  0  0
    9.4982    0.8650   60.3504 O   0  0  0  0  0  0  0  0  0  0  0  0
   11.4018    0.9916   57.2233 C   0  0  0  0  0  0  0  0  0  0  0  0
   10.8126    1.3841   58.4251 C   0  0  0  0  0  0  0  0  0  0  0  0
   10.5101   -1.2350   57.5132 C   0  0  0  0  0  0  0  0  0  0  0  0
   11.2506   -0.3179   56.7673 C   0  0  0  0  0  0  0  0  0  0  0  0
   10.0722    0.4670   59.1710 C   0  0  0  0  0  0  0  0  0  0  0  0
    9.9210   -0.8425   58.7150 C   0  0  0  0  0  0  0  0  0  0  0  0
   11.8632   -0.7264   55.5132 C   0  0  0  0  0  0  0  0  0  0  0  0
   13.1508   -0.0614   55.1214 C   0  0  0  0  0  0  0  0  0  0  0  0
   11.4030   -1.5738   54.7451 O   0  0  0  0  0  0  0  0  0  0  0  0
    7.8414   -1.9488   59.0427 C   0  0  0  0  0  0  0  0  0  0  0  0
    9.1983   -1.7469   59.4331 O   0  0  0  0  0  0  0  0  0  0  0  0
  8  9  2  0  0  0
  8 11  1  0  0  0
 22 23  2  0  0  0
 22 25  1  0  0  0
 23 26  1  0  0  0
  9 13  1  0  0  0
 24 25  2  0  0  0
 24 27  1  0  0  0
 10 12  1  0  0  0
 10 13  2  0  0  0
 11 12  2  0  0  0
 11 14  1  0  0  0
 25 28  1  0  0  0
 12 16  1  0  0  0
 26 27  2  0  0  0
 26 21  1  0  0  0
 27 32  1  0  0  0
 13 17  1  0  0  0
 14  5  1  0  0  0
 14 15  2  0  0  0
 28 29  1  0  0  0
 28 30  2  0  0  0
  1  3  1  0  0  0
  1  5  1  0  0  0
  2  4  1  0  0  0
  2  5  1  0  0  0
  3  6  1  0  0  0
  4  6  1  0  0  0
 31 32  1  0  0  0
 19 18  1  0  0  0
 19 20  1  0  0  0
 18  6  1  0  0  0
 20 21  1  0  0  0
 15 16  1  0  0  0
  6  7  1  0  0  0
M  CHG 1   6   1
M  END
> <minimizedAffinity>
-9.40116

> <CNNscore>
0.5843640566

> <CNNaffinity>
7.4686250687

> <CNN_VS>
4.3643960953

> <CNNaffinity_variance>
0.0432550982

$$$$



 32 35  0  0  0  0  0  0  0  0999 V2000
   15.7164    0.1412   60.7423 C   0  0  0  0  0  0  0  0  0  0  0  0
   13.8747   -0.0516   59.0225 C   0  0  0  0  0  0  0  0  0  0  0  0
   14.7156   -0.2019   61.8383 C   0  0  0  0  0  0  0  0  0  0  0  0
   12.8880   -0.3936   60.1315 C   0  0  0  0  0  0  0  0  0  0  0  0
   15.3066   -0.4705   59.3928 C   0  0  0  0  0  0  0  0  0  0  0  0
   13.3375    0.2520   61.4204 N   0  0  0  0  0  0  0  0  0  0  0  0
   13.3876    1.2664   61.2527 H   0  0  0  0  0  0  0  0  0  0  0  0
   18.5160   -1.3150   58.8632 C   0  0  0  0  0  0  0  0  0  0  0  0
   19.8119   -1.4417   58.3433 C   0  0  0  0  0  0  0  0  0  0  0  0
   19.2934    0.0467   56.4826 C   0  0  0  0  0  0  0  0  0  0  0  0
   17.6052   -0.4963   58.1794 C   0  0  0  0  0  0  0  0  0  0  0  0
   18.0165    0.1497   57.0266 C   0  0  0  0  0  0  0  0  0  0  0  0
   20.1911   -0.7727   57.1749 C   0  0  0  0  0  0  0  0  0  0  0  0
   16.2644   -0.0911   58.3249 C   0  0  0  0  0  0  0  0  0  0  0  0
   15.8734    0.7349   57.3499 N   0  0  0  0  0  0  0  0  0  0  0  0
   16.9847    0.8856   56.5297 O   0  0  0  0  0  0  0  0  0  0  0  0
   21.4400   -0.9177   56.7101 F   0  0  0  0  0  0  0  0  0  0  0  0
   12.3305    0.0538   62.5201 C   0  0  0  0  0  0  0  0  0  0  0  0
   11.5002    1.3173   62.6684 C   0  0  0  0  0  0  0  0  0  0  0  0
   10.0183    0.9952   62.7967 C   0  0  0  0  0  0  0  0  0  0  0  0
    9.3302    1.5433   61.6809 O   0  0  0  0  0  0  0  0  0  0  0  0
    9.2429   -1.1334   59.1815 C   0  0  0  0  0  0  0  0  0  0  0  0
    9.1053   -0.4551   60.3926 C   0  0  0  0  0  0  0  0  0  0  0  0
   10.1106    0.8745   58.1556 C   0  0  0  0  0  0  0  0  0  0  0  0
    9.7456   -0.4686   58.0630 C   0  0  0  0  0  0  0  0  0  0  0  0
    9.4703    0.8880   60.4851 C   0  0  0  0  0  0  0  0  0  0  0  0
    9.9729    1.5527   59.3666 C   0  0  0  0  0  0  0  0  0  0  0  0
    9.8910   -1.1765   56.8010 C   0  0  0  0  0  0  0  0  0  0  0  0
   11.1240   -0.9019   55.9899 C   0  0  0  0  0  0  0  0  0  0  0  0
    9.0764   -1.9813   56.3444 O   0  0  0  0  0  0  0  0  0  0  0  0
   11.7311    3.1536   59.4076 C   0  0  0  0  0  0  0  0  0  0  0  0
   10.3352    2.8636   59.4448 O   0  0  0  0  0  0  0  0  0  0  0  0
  8  9  2  0  0  0
  8 11  1  0  0  0
 22 23  2  0  0  0
 22 25  1  0  0  0
 23 26  1  0  0  0
  9 13  1  0  0  0
 24 25  2  0  0  0
 24 27  1  0  0  0
 10 12  1  0  0  0
 10 13  2  0  0  0
 11 12  2  0  0  0
 11 14  1  0  0  0
 25 28  1  0  0  0
 12 16  1  0  0  0
 26 27  2  0  0  0
 26 21  1  0  0  0
 27 32  1  0  0  0
 13 17  1  0  0  0
 14  5  1  0  0  0
 14 15  2  0  0  0
 28 29  1  0  0  0
 28 30  2  0  0  0
  1  3  1  0  0  0
  1  5  1  0  0  0
  2  4  1  0  0  0
  2  5  1  0  0  0
  3  6  1  0  0  0
  4  6  1  0  0  0
 31 32  1  0  0  0
 19 18  1  0  0  0
 19 20  1  0  0  0
 18  6  1  0  0  0
 20 21  1  0  0  0
 15 16  1  0  0  0
  6  7  1  0  0  0
M  CHG 1   6   1
M  END
> <minimizedAffinity>
-9.65199

> <CNNscore>
0.5604029894

> <CNNaffinity>
7.3137788773

> <CNN_VS>
4.0986633301

> <CNNaffinity_variance>
0.0775582716

$$$$



 32 35  0  0  0  0  0  0  0  0999 V2000
   15.9733    0.3428   59.5421 C   0  0  0  0  0  0  0  0  0  0  0  0
   14.5854    0.3382   57.4301 C   0  0  0  0  0  0  0  0  0  0  0  0
   14.7066    0.1391   60.3634 C   0  0  0  0  0  0  0  0  0  0  0  0
   13.3293    0.1342   58.2675 C   0  0  0  0  0  0  0  0  0  0  0  0
   15.8277   -0.2398   58.1270 C   0  0  0  0  0  0  0  0  0  0  0  0
   13.5318    0.7447   59.6336 N   0  0  0  0  0  0  0  0  0  0  0  0
   13.7402    1.7431   59.4942 H   0  0  0  0  0  0  0  0  0  0  0  0
   18.9755   -1.3741   58.4403 C   0  0  0  0  0  0  0  0  0  0  0  0
   20.3421   -1.6339   58.2648 C   0  0  0  0  0  0  0  0  0  0  0  0
   20.4398   -0.2005   56.2946 C   0  0  0  0  0  0  0  0  0  0  0  0
   18.3420   -0.5168   57.5287 C   0  0  0  0  0  0  0  0  0  0  0  0
   19.0834    0.0353   56.4987 C   0  0  0  0  0  0  0  0  0  0  0  0
   21.0585   -1.0570   57.2111 C   0  0  0  0  0  0  0  0  0  0  0  0
   17.0504    0.0055   57.3231 C   0  0  0  0  0  0  0  0  0  0  0  0
   16.9909    0.8125   56.2596 N   0  0  0  0  0  0  0  0  0  0  0  0
   18.2794    0.8295   55.7399 O   0  0  0  0  0  0  0  0  0  0  0  0
   22.3644   -1.3283   57.0778 F   0  0  0  0  0  0  0  0  0  0  0  0
   12.2754    0.6857   60.4588 C   0  0  0  0  0  0  0  0  0  0  0  0
   12.2748   -0.5965   61.2735 C   0  0  0  0  0  0  0  0  0  0  0  0
   10.8819   -0.9235   61.7921 C   0  0  0  0  0  0  0  0  0  0  0  0
   10.8028   -0.5548   63.1621 O   0  0  0  0  0  0  0  0  0  0  0  0
    7.8165    1.3838   64.0237 C   0  0  0  0  0  0  0  0  0  0  0  0
    9.0806    1.0579   63.5324 C   0  0  0  0  0  0  0  0  0  0  0  0
    7.5090   -0.9004   64.7481 C   0  0  0  0  0  0  0  0  0  0  0  0
    7.0307    0.4047   64.6316 C   0  0  0  0  0  0  0  0  0  0  0  0
    9.5589   -0.2472   63.6489 C   0  0  0  0  0  0  0  0  0  0  0  0
    8.7731   -1.2263   64.2567 C   0  0  0  0  0  0  0  0  0  0  0  0
    5.7136    0.7451   65.1457 C   0  0  0  0  0  0  0  0  0  0  0  0
    4.8461    1.6304   64.2988 C   0  0  0  0  0  0  0  0  0  0  0  0
    5.2572    0.3659   66.2264 O   0  0  0  0  0  0  0  0  0  0  0  0
    8.5034   -3.5205   63.6909 C   0  0  0  0  0  0  0  0  0  0  0  0
    9.2299   -2.5039   64.3788 O   0  0  0  0  0  0  0  0  0  0  0  0
  8  9  2  0  0  0
  8 11  1  0  0  0
 22 23  2  0  0  0
 22 25  1  0  0  0
 23 26  1  0  0  0
  9 13  1  0  0  0
 24 25  2  0  0  0
 24 27  1  0  0  0
 10 12  1  0  0  0
 10 13  2  0  0  0
 11 12  2  0  0  0
 11 14  1  0  0  0
 25 28  1  0  0  0
 12 16  1  0  0  0
 26 27  2  0  0  0
 26 21  1  0  0  0
 27 32  1  0  0  0
 13 17  1  0  0  0
 14  5  1  0  0  0
 14 15  2  0  0  0
 28 29  1  0  0  0
 28 30  2  0  0  0
  1  3  1  0  0  0
  1  5  1  0  0  0
  2  4  1  0  0  0
  2  5  1  0  0  0
  3  6  1  0  0  0
  4  6  1  0  0  0
 31 32  1  0  0  0
 19 18  1  0  0  0
 19 20  1  0  0  0
 18  6  1  0  0  0
 20 21  1  0  0  0
 15 16  1  0  0  0
  6  7  1  0  0  0
M  CHG 1   6   1
M  END
> <minimizedAffinity>
-8.54465

> <CNNscore>
0.5319959521

> <CNNaffinity>
6.7029647827

> <CNN_VS>
3.5659501553

> <CNNaffinity_variance>
0.1768548936

$$$$



 32 35  0  0  0  0  0  0  0  0999 V2000
   15.7849    0.4354   59.5373 C   0  0  0  0  0  0  0  0  0  0  0  0
   14.4442    0.2755   57.4011 C   0  0  0  0  0  0  0  0  0  0  0  0
   14.5071    0.2379   60.3427 C   0  0  0  0  0  0  0  0  0  0  0  0
   13.1766    0.0789   58.2227 C   0  0  0  0  0  0  0  0  0  0  0  0
   15.6873   -0.2264   58.1532 C   0  0  0  0  0  0  0  0  0  0  0  0
   13.3313    0.7677   59.5574 N   0  0  0  0  0  0  0  0  0  0  0  0
   13.5136    1.7630   59.3682 H   0  0  0  0  0  0  0  0  0  0  0  0
   18.8315   -1.3563   58.5151 C   0  0  0  0  0  0  0  0  0  0  0  0
   20.2002   -1.6170   58.3587 C   0  0  0  0  0  0  0  0  0  0  0  0
   20.3213   -0.2014   56.3769 C   0  0  0  0  0  0  0  0  0  0  0  0
   18.2088   -0.5076   57.5882 C   0  0  0  0  0  0  0  0  0  0  0  0
   18.9625    0.0356   56.5623 C   0  0  0  0  0  0  0  0  0  0  0  0
   20.9292   -1.0493   57.3086 C   0  0  0  0  0  0  0  0  0  0  0  0
   16.9196    0.0122   57.3621 C   0  0  0  0  0  0  0  0  0  0  0  0
   16.8728    0.8095   56.2907 N   0  0  0  0  0  0  0  0  0  0  0  0
   18.1675    0.8225   55.7867 O   0  0  0  0  0  0  0  0  0  0  0  0
   22.2367   -1.3212   57.1937 F   0  0  0  0  0  0  0  0  0  0  0  0
   12.0595    0.7151   60.3590 C   0  0  0  0  0  0  0  0  0  0  0  0
   11.1205   -0.3040   59.7363 C   0  0  0  0  0  0  0  0  0  0  0  0
    9.9266   -0.5818   60.6382 C   0  0  0  0  0  0  0  0  0  0  0  0
    9.9363   -1.9547   61.0044 O   0  0  0  0  0  0  0  0  0  0  0  0
    7.5180   -2.6309   63.6715 C   0  0  0  0  0  0  0  0  0  0  0  0
    8.6454   -2.1524   63.0040 C   0  0  0  0  0  0  0  0  0  0  0  0
    6.7482   -3.6663   61.6288 C   0  0  0  0  0  0  0  0  0  0  0  0
    6.5694   -3.3880   62.9839 C   0  0  0  0  0  0  0  0  0  0  0  0
    8.8242   -2.4308   61.6489 C   0  0  0  0  0  0  0  0  0  0  0  0
    7.8756   -3.1877   60.9614 C   0  0  0  0  0  0  0  0  0  0  0  0
    5.3950   -3.8887   63.6804 C   0  0  0  0  0  0  0  0  0  0  0  0
    4.5807   -2.9014   64.4650 C   0  0  0  0  0  0  0  0  0  0  0  0
    5.0202   -5.0631   63.6794 O   0  0  0  0  0  0  0  0  0  0  0  0
    7.0970   -2.8983   58.7329 C   0  0  0  0  0  0  0  0  0  0  0  0
    8.0399   -3.4684   59.6385 O   0  0  0  0  0  0  0  0  0  0  0  0
  8  9  2  0  0  0
  8 11  1  0  0  0
 22 23  2  0  0  0
 22 25  1  0  0  0
 23 26  1  0  0  0
  9 13  1  0  0  0
 24 25  2  0  0  0
 24 27  1  0  0  0
 10 12  1  0  0  0
 10 13  2  0  0  0
 11 12  2  0  0  0
 11 14  1  0  0  0
 25 28  1  0  0  0
 12 16  1  0  0  0
 26 27  2  0  0  0
 26 21  1  0  0  0
 27 32  1  0  0  0
 13 17  1  0  0  0
 14  5  1  0  0  0
 14 15  2  0  0  0
 28 29  1  0  0  0
 28 30  2  0  0  0
  1  3  1  0  0  0
  1  5  1  0  0  0
  2  4  1  0  0  0
  2  5  1  0  0  0
  3  6  1  0  0  0
  4  6  1  0  0  0
 31 32  1  0  0  0
 19 18  1  0  0  0
 19 20  1  0  0  0
 18  6  1  0  0  0
 20 21  1  0  0  0
 15 16  1  0  0  0
  6  7  1  0  0  0
M  CHG 1   6   1
M  END
> <minimizedAffinity>
-9.89862

> <CNNscore>
0.4796374142

> <CNNaffinity>
6.4633150101

> <CNN_VS>
3.1000475883

> <CNNaffinity_variance>
0.0024384120

$$$$



 25 28  0  0  0  0  0  0  0  0999 V2000
   21.3920   -1.5471   57.0713 C   0  0  0  0  0  0  0  0  0  0  0  0
   21.0791   -1.5180   58.4155 C   0  0  0  0  0  0  0  0  0  0  0  0
   20.4244   -1.1730   56.1433 C   0  0  0  0  0  0  0  0  0  0  0  0
   19.8039   -1.1159   58.8089 C   0  0  0  0  0  0  0  0  0  0  0  0
   14.8981    0.8129   56.1221 C   0  0  0  0  0  0  0  0  0  0  0  0
   16.1584    0.2869   56.5716 C   0  0  0  0  0  0  0  0  0  0  0  0
   19.1202   -0.7594   56.5238 C   0  0  0  0  0  0  0  0  0  0  0  0
   18.7993   -0.7287   57.8856 C   0  0  0  0  0  0  0  0  0  0  0  0
   14.8253    0.9439   54.7561 C   0  0  0  0  0  0  0  0  0  0  0  0
   17.0055    0.0517   55.5125 C   0  0  0  0  0  0  0  0  0  0  0  0
   16.4580    0.0507   57.9837 C   0  0  0  0  0  0  0  0  0  0  0  0
   13.7002    1.4423   53.9363 C   0  0  0  0  0  0  0  0  0  0  0  0
   18.2662   -0.4123   55.4702 N   0  0  0  0  0  0  0  0  0  0  0  0
   17.6139   -0.3780   58.4739 N   0  0  0  0  0  0  0  0  0  0  0  0
   16.2618    0.4415   54.0048 S   0  0  0  0  0  0  0  0  0  0  0  0
   18.6883   -0.5109   54.5504 H   0  0  0  0  0  0  0  0  0  0  0  0
   17.6075   -0.4603   59.4894 H   0  0  0  0  0  0  0  0  0  0  0  0
   15.6078    0.0273   60.2886 C   0  0  0  0  0  0  0  0  0  0  0  0
   14.2045    0.9113   58.4488 C   0  0  0  0  0  0  0  0  0  0  0  0
   14.4291   -0.7736   60.8217 C   0  0  0  0  0  0  0  0  0  0  0  0
   13.0098    0.1209   58.9616 C   0  0  0  0  0  0  0  0  0  0  0  0
   11.9413   -0.7457   61.0466 C   0  0  0  0  0  0  0  0  0  0  0  0
   15.4566    0.2942   58.8647 N   0  0  0  0  0  0  0  0  0  0  0  0
   13.1432   -0.0612   60.4589 N   0  0  0  0  0  0  0  0  0  0  0  0
   13.1818    0.8772   60.8807 H   0  0  0  0  0  0  0  0  0  0  0  0
  1  2  1  0  0  0
  1  3  2  0  0  0
  2  4  2  0  0  0
  3  7  1  0  0  0
  4  8  1  0  0  0
  5  6  1  0  0  0
  5  9  2  0  0  0
  6 10  2  0  0  0
  6 11  1  0  0  0
  7  8  2  0  0  0
  7 13  1  0  0  0
  8 14  1  0  0  0
  9 12  1  0  0  0
  9 15  1  0  0  0
 10 13  1  0  0  0
 10 15  1  0  0  0
 11 23  1  0  0  0
 11 14  2  0  0  0
 18 20  1  0  0  0
 18 23  1  0  0  0
 19 21  1  0  0  0
 19 23  1  0  0  0
 20 24  1  0  0  0
 21 24  1  0  0  0
 22 24  1  0  0  0
 13 16  1  0  0  0
 14 17  1  0  0  0
 24 25  1  0  0  0
M  CHG 1  14   1
M  CHG 1  24   1
M  END
> <minimizedAffinity>
-8.75887

> <CNNscore>
0.8250509501

> <CNNaffinity>
7.0339117050

> <CNN_VS>
5.8033356667

> <CNNaffinity_variance>
0.1576474756

$$$$



 25 28  0  0  0  0  0  0  0  0999 V2000
    2.3514   -6.1501   63.0704 C   0  0  0  0  0  0  0  0  0  0  0  0
    2.7398   -5.8068   64.3499 C   0  0  0  0  0  0  0  0  0  0  0  0
    3.1275   -5.7326   61.9930 C   0  0  0  0  0  0  0  0  0  0  0  0
    3.8971   -5.0515   64.5302 C   0  0  0  0  0  0  0  0  0  0  0  0
    8.1119   -2.7715   61.0599 C   0  0  0  0  0  0  0  0  0  0  0  0
    6.9752   -3.3597   61.7149 C   0  0  0  0  0  0  0  0  0  0  0  0
    4.3102   -4.9636   62.1558 C   0  0  0  0  0  0  0  0  0  0  0  0
    4.7071   -4.6136   63.4513 C   0  0  0  0  0  0  0  0  0  0  0  0
    8.0854   -2.9237   59.6944 C   0  0  0  0  0  0  0  0  0  0  0  0
    6.1300   -3.9544   60.8058 C   0  0  0  0  0  0  0  0  0  0  0  0
    6.7847   -3.3098   63.1642 C   0  0  0  0  0  0  0  0  0  0  0  0
    9.0694   -2.4551   58.6951 C   0  0  0  0  0  0  0  0  0  0  0  0
    4.9785   -4.6274   60.9725 N   0  0  0  0  0  0  0  0  0  0  0  0
    5.7933   -3.8764   63.8397 N   0  0  0  0  0  0  0  0  0  0  0  0
    6.7047   -3.7712   59.1888 S   0  0  0  0  0  0  0  0  0  0  0  0
    4.5220   -4.9713   60.1315 H   0  0  0  0  0  0  0  0  0  0  0  0
    5.8625   -3.7266   64.8451 H   0  0  0  0  0  0  0  0  0  0  0  0
    9.0402   -3.1564   64.1261 C   0  0  0  0  0  0  0  0  0  0  0  0
    7.4546   -1.2669   64.3530 C   0  0  0  0  0  0  0  0  0  0  0  0
    9.4016   -3.0483   65.6002 C   0  0  0  0  0  0  0  0  0  0  0  0
    7.7986   -1.1372   65.8293 C   0  0  0  0  0  0  0  0  0  0  0  0
    9.6591   -1.4153   67.4729 C   0  0  0  0  0  0  0  0  0  0  0  0
    7.7103   -2.6184   63.8738 N   0  0  0  0  0  0  0  0  0  0  0  0
    9.2188   -1.6141   66.0499 N   0  0  0  0  0  0  0  0  0  0  0  0
    9.8338   -1.0284   65.4680 H   0  0  0  0  0  0  0  0  0  0  0  0
  1  2  1  0  0  0
  1  3  2  0  0  0
  2  4  2  0  0  0
  3  7  1  0  0  0
  4  8  1  0  0  0
  5  6  1  0  0  0
  5  9  2  0  0  0
  6 10  2  0  0  0
  6 11  1  0  0  0
  7  8  2  0  0  0
  7 13  1  0  0  0
  8 14  1  0  0  0
  9 12  1  0  0  0
  9 15  1  0  0  0
 10 13  1  0  0  0
 10 15  1  0  0  0
 11 23  1  0  0  0
 11 14  2  0  0  0
 18 20  1  0  0  0
 18 23  1  0  0  0
 19 21  1  0  0  0
 19 23  1  0  0  0
 20 24  1  0  0  0
 21 24  1  0  0  0
 22 24  1  0  0  0
 13 16  1  0  0  0
 14 17  1  0  0  0
 24 25  1  0  0  0
M  CHG 1  14   1
M  CHG 1  24   1
M  END
> <minimizedAffinity>
-6.55770

> <CNNscore>
0.5932077169

> <CNNaffinity>
5.9400477409

> <CNN_VS>
3.5236821175

> <CNNaffinity_variance>
0.0150608318

$$$$



 25 28  0  0  0  0  0  0  0  0999 V2000
   20.2925   -1.1708   57.6448 C   0  0  0  0  0  0  0  0  0  0  0  0
   19.6200   -1.3594   58.8355 C   0  0  0  0  0  0  0  0  0  0  0  0
   19.5905   -0.7007   56.5386 C   0  0  0  0  0  0  0  0  0  0  0  0
   18.2570   -1.0753   58.8998 C   0  0  0  0  0  0  0  0  0  0  0  0
   14.1394    1.0332   55.2113 C   0  0  0  0  0  0  0  0  0  0  0  0
   15.2661    0.4980   55.9263 C   0  0  0  0  0  0  0  0  0  0  0  0
   18.2024   -0.4044   56.5840 C   0  0  0  0  0  0  0  0  0  0  0  0
   17.5173   -0.5945   57.7893 C   0  0  0  0  0  0  0  0  0  0  0  0
   14.4353    1.3672   53.9115 C   0  0  0  0  0  0  0  0  0  0  0  0
   16.3886    0.4620   55.1307 C   0  0  0  0  0  0  0  0  0  0  0  0
   15.1834    0.0626   57.3203 C   0  0  0  0  0  0  0  0  0  0  0  0
   13.5424    1.9370   52.8799 C   0  0  0  0  0  0  0  0  0  0  0  0
   17.6462    0.0629   55.3873 N   0  0  0  0  0  0  0  0  0  0  0  0
   16.1908   -0.3871   58.0572 N   0  0  0  0  0  0  0  0  0  0  0  0
   16.0596    1.0452   53.5401 S   0  0  0  0  0  0  0  0  0  0  0  0
   18.3121    0.1229   54.6211 H   0  0  0  0  0  0  0  0  0  0  0  0
   15.9117   -0.6230   59.0082 H   0  0  0  0  0  0  0  0  0  0  0  0
   12.8165   -0.5946   57.3655 C   0  0  0  0  0  0  0  0  0  0  0  0
   13.7442    0.8558   59.1464 C   0  0  0  0  0  0  0  0  0  0  0  0
   11.6092    0.3213   57.2292 C   0  0  0  0  0  0  0  0  0  0  0  0
   12.5470    1.7875   59.0306 C   0  0  0  0  0  0  0  0  0  0  0  0
   10.1014    1.8347   58.5239 C   0  0  0  0  0  0  0  0  0  0  0  0
   13.9614    0.1273   57.9040 N   0  0  0  0  0  0  0  0  0  0  0  0
   11.3463    0.9938   58.5601 N   0  0  0  0  0  0  0  0  0  0  0  0
   11.1783    0.2506   59.2525 H   0  0  0  0  0  0  0  0  0  0  0  0
  1  2  1  0  0  0
  1  3  2  0  0  0
  2  4  2  0  0  0
  3  7  1  0  0  0
  4  8  1  0  0  0
  5  6  1  0  0  0
  5  9  2  0  0  0
  6 10  2  0  0  0
  6 11  1  0  0  0
  7  8  2  0  0  0
  7 13  1  0  0  0
  8 14  1  0  0  0
  9 12  1  0  0  0
  9 15  1  0  0  0
 10 13  1  0  0  0
 10 15  1  0  0  0
 11 23  1  0  0  0
 11 14  2  0  0  0
 18 20  1  0  0  0
 18 23  1  0  0  0
 19 21  1  0  0  0
 19 23  1  0  0  0
 20 24  1  0  0  0
 21 24  1  0  0  0
 22 24  1  0  0  0
 13 16  1  0  0  0
 14 17  1  0  0  0
 24 25  1  0  0  0
M  CHG 1  14   1
M  CHG 1  24   1
M  END
> <minimizedAffinity>
-8.55289

> <CNNscore>
0.4867627621

> <CNNaffinity>
6.5134763718

> <CNN_VS>
3.1705176830

> <CNNaffinity_variance>
0.1615569890

$$$$



 25 28  0  0  0  0  0  0  0  0999 V2000
    2.2785   -6.8713   60.1863 C   0  0  0  0  0  0  0  0  0  0  0  0
    2.2724   -6.9261   61.5657 C   0  0  0  0  0  0  0  0  0  0  0  0
    3.2415   -6.0981   59.5444 C   0  0  0  0  0  0  0  0  0  0  0  0
    3.2288   -6.2064   62.2796 C   0  0  0  0  0  0  0  0  0  0  0  0
    7.8423   -2.7402   60.9730 C   0  0  0  0  0  0  0  0  0  0  0  0
    6.6669   -3.5618   61.0763 C   0  0  0  0  0  0  0  0  0  0  0  0
    4.2249   -5.3586   60.2535 C   0  0  0  0  0  0  0  0  0  0  0  0
    4.2218   -5.4116   61.6519 C   0  0  0  0  0  0  0  0  0  0  0  0
    8.1904   -2.4586   59.6738 C   0  0  0  0  0  0  0  0  0  0  0  0
    6.1751   -3.8850   59.8320 C   0  0  0  0  0  0  0  0  0  0  0  0
    6.1036   -3.9779   62.3604 C   0  0  0  0  0  0  0  0  0  0  0  0
    9.3251   -1.6505   59.1778 C   0  0  0  0  0  0  0  0  0  0  0  0
    5.1233   -4.6348   59.4605 N   0  0  0  0  0  0  0  0  0  0  0  0
    5.0590   -4.7779   62.5304 N   0  0  0  0  0  0  0  0  0  0  0  0
    7.1170   -3.1754   58.5720 S   0  0  0  0  0  0  0  0  0  0  0  0
    4.9511   -4.7214   58.4621 H   0  0  0  0  0  0  0  0  0  0  0  0
    4.8450   -4.9469   63.5121 H   0  0  0  0  0  0  0  0  0  0  0  0
    6.0499   -2.5426   64.3536 C   0  0  0  0  0  0  0  0  0  0  0  0
    8.0233   -3.9671   63.8933 C   0  0  0  0  0  0  0  0  0  0  0  0
    6.9571   -1.3587   64.6542 C   0  0  0  0  0  0  0  0  0  0  0  0
    8.9527   -2.7995   64.1893 C   0  0  0  0  0  0  0  0  0  0  0  0
    9.1890   -0.7487   65.5959 C   0  0  0  0  0  0  0  0  0  0  0  0
    6.7106   -3.4964   63.4730 N   0  0  0  0  0  0  0  0  0  0  0  0
    8.2812   -1.8717   65.1799 N   0  0  0  0  0  0  0  0  0  0  0  0
    8.0837   -2.4193   66.0290 H   0  0  0  0  0  0  0  0  0  0  0  0
  1  2  1  0  0  0
  1  3  2  0  0  0
  2  4  2  0  0  0
  3  7  1  0  0  0
  4  8  1  0  0  0
  5  6  1  0  0  0
  5  9  2  0  0  0
  6 10  2  0  0  0
  6 11  1  0  0  0
  7  8  2  0  0  0
  7 13  1  0  0  0
  8 14  1  0  0  0
  9 12  1  0  0  0
  9 15  1  0  0  0
 10 13  1  0  0  0
 10 15  1  0  0  0
 11 23  1  0  0  0
 11 14  2  0  0  0
 18 20  1  0  0  0
 18 23  1  0  0  0
 19 21  1  0  0  0
 19 23  1  0  0  0
 20 24  1  0  0  0
 21 24  1  0  0  0
 22 24  1  0  0  0
 13 16  1  0  0  0
 14 17  1  0  0  0
 24 25  1  0  0  0
M  CHG 1  14   1
M  CHG 1  24   1
M  END
> <minimizedAffinity>
-6.28238

> <CNNscore>
0.4812821448

> <CNNaffinity>
5.5495147705

> <CNN_VS>
2.6708824635

> <CNNaffinity_variance>
0.1364600956

$$$$



 25 28  0  0  0  0  0  0  0  0999 V2000
   11.4415    0.7768   63.7702 C   0  0  0  0  0  0  0  0  0  0  0  0
   10.7741    0.4561   64.9352 C   0  0  0  0  0  0  0  0  0  0  0  0
   11.0287    0.1988   62.5731 C   0  0  0  0  0  0  0  0  0  0  0  0
    9.7058   -0.4375   64.8837 C   0  0  0  0  0  0  0  0  0  0  0  0
    6.8417   -3.4565   60.6779 C   0  0  0  0  0  0  0  0  0  0  0  0
    7.6909   -2.6843   61.5439 C   0  0  0  0  0  0  0  0  0  0  0  0
    9.9422   -0.7128   62.4995 C   0  0  0  0  0  0  0  0  0  0  0  0
    9.2633   -1.0404   63.6785 C   0  0  0  0  0  0  0  0  0  0  0  0
    7.2072   -3.3785   59.3555 C   0  0  0  0  0  0  0  0  0  0  0  0
    8.6697   -2.0325   60.8287 C   0  0  0  0  0  0  0  0  0  0  0  0
    7.4995   -2.6270   62.9929 C   0  0  0  0  0  0  0  0  0  0  0  0
    6.5806   -4.0310   58.1858 C   0  0  0  0  0  0  0  0  0  0  0  0
    9.6510   -1.2018   61.2205 N   0  0  0  0  0  0  0  0  0  0  0  0
    8.2065   -1.8948   63.8438 N   0  0  0  0  0  0  0  0  0  0  0  0
    8.5640   -2.3818   59.1419 S   0  0  0  0  0  0  0  0  0  0  0  0
   10.2688   -0.8469   60.4950 H   0  0  0  0  0  0  0  0  0  0  0  0
    7.8942   -1.9962   64.8083 H   0  0  0  0  0  0  0  0  0  0  0  0
    6.6104   -4.8488   63.5491 C   0  0  0  0  0  0  0  0  0  0  0  0
    5.3193   -2.8107   64.1101 C   0  0  0  0  0  0  0  0  0  0  0  0
    5.3589   -5.5025   62.9821 C   0  0  0  0  0  0  0  0  0  0  0  0
    4.0532   -3.4416   63.5500 C   0  0  0  0  0  0  0  0  0  0  0  0
    2.8789   -5.6267   63.2552 C   0  0  0  0  0  0  0  0  0  0  0  0
    6.5071   -3.3965   63.5040 N   0  0  0  0  0  0  0  0  0  0  0  0
    4.1445   -4.9462   63.6952 N   0  0  0  0  0  0  0  0  0  0  0  0
    4.2552   -5.1523   64.6977 H   0  0  0  0  0  0  0  0  0  0  0  0
  1  2  1  0  0  0
  1  3  2  0  0  0
  2  4  2  0  0  0
  3  7  1  0  0  0
  4  8  1  0  0  0
  5  6  1  0  0  0
  5  9  2  0  0  0
  6 10  2  0  0  0
  6 11  1  0  0  0
  7  8  2  0  0  0
  7 13  1  0  0  0
  8 14  1  0  0  0
  9 12  1  0  0  0
  9 15  1  0  0  0
 10 13  1  0  0  0
 10 15  1  0  0  0
 11 23  1  0  0  0
 11 14  2  0  0  0
 18 20  1  0  0  0
 18 23  1  0  0  0
 19 21  1  0  0  0
 19 23  1  0  0  0
 20 24  1  0  0  0
 21 24  1  0  0  0
 22 24  1  0  0  0
 13 16  1  0  0  0
 14 17  1  0  0  0
 24 25  1  0  0  0
M  CHG 1  14   1
M  CHG 1  24   1
M  END
> <minimizedAffinity>
-6.93739

> <CNNscore>
0.4762147665

> <CNNaffinity>
5.6180634499

> <CNN_VS>
2.6754047871

> <CNNaffinity_variance>
0.0540954955

$$$$



 25 28  0  0  0  0  0  0  0  0999 V2000
    2.4695   -5.4829   64.4631 C   0  0  0  0  0  0  0  0  0  0  0  0
    2.7516   -4.8349   65.6489 C   0  0  0  0  0  0  0  0  0  0  0  0
    3.3019   -5.2792   63.3663 C   0  0  0  0  0  0  0  0  0  0  0  0
    3.8608   -3.9938   65.7176 C   0  0  0  0  0  0  0  0  0  0  0  0
    8.2122   -2.3311   62.0699 C   0  0  0  0  0  0  0  0  0  0  0  0
    7.0574   -2.8178   62.7747 C   0  0  0  0  0  0  0  0  0  0  0  0
    4.4370   -4.4274   63.4164 C   0  0  0  0  0  0  0  0  0  0  0  0
    4.7262   -3.7686   64.6167 C   0  0  0  0  0  0  0  0  0  0  0  0
    8.2889   -2.7925   60.7777 C   0  0  0  0  0  0  0  0  0  0  0  0
    6.3043   -3.6515   61.9797 C   0  0  0  0  0  0  0  0  0  0  0  0
    6.7628   -2.4491   64.1591 C   0  0  0  0  0  0  0  0  0  0  0  0
    9.3208   -2.5094   59.7573 C   0  0  0  0  0  0  0  0  0  0  0  0
    5.1729   -4.3329   62.2291 N   0  0  0  0  0  0  0  0  0  0  0  0
    5.7506   -2.9017   64.8875 N   0  0  0  0  0  0  0  0  0  0  0  0
    6.9839   -3.8102   60.4013 S   0  0  0  0  0  0  0  0  0  0  0  0
    4.7918   -4.8852   61.4651 H   0  0  0  0  0  0  0  0  0  0  0  0
    5.7420   -2.5225   65.8331 H   0  0  0  0  0  0  0  0  0  0  0  0
    7.2754   -0.1479   64.8505 C   0  0  0  0  0  0  0  0  0  0  0  0
    8.8520   -1.9874   65.3663 C   0  0  0  0  0  0  0  0  0  0  0  0
    8.4259    0.7201   64.3625 C   0  0  0  0  0  0  0  0  0  0  0  0
   10.0203   -1.1400   64.8848 C   0  0  0  0  0  0  0  0  0  0  0  0
   10.8462    1.2128   64.7358 C   0  0  0  0  0  0  0  0  0  0  0  0
    7.6062   -1.5624   64.7428 N   0  0  0  0  0  0  0  0  0  0  0  0
    9.6899    0.3228   65.0953 N   0  0  0  0  0  0  0  0  0  0  0  0
    9.5177    0.4575   66.1013 H   0  0  0  0  0  0  0  0  0  0  0  0
  1  2  1  0  0  0
  1  3  2  0  0  0
  2  4  2  0  0  0
  3  7  1  0  0  0
  4  8  1  0  0  0
  5  6  1  0  0  0
  5  9  2  0  0  0
  6 10  2  0  0  0
  6 11  1  0  0  0
  7  8  2  0  0  0
  7 13  1  0  0  0
  8 14  1  0  0  0
  9 12  1  0  0  0
  9 15  1  0  0  0
 10 13  1  0  0  0
 10 15  1  0  0  0
 11 23  1  0  0  0
 11 14  2  0  0  0
 18 20  1  0  0  0
 18 23  1  0  0  0
 19 21  1  0  0  0
 19 23  1  0  0  0
 20 24  1  0  0  0
 21 24  1  0  0  0
 22 24  1  0  0  0
 13 16  1  0  0  0
 14 17  1  0  0  0
 24 25  1  0  0  0
M  CHG 1  14   1
M  CHG 1  24   1
M  END
> <minimizedAffinity>
-6.79182

> <CNNscore>
0.4745925367

> <CNNaffinity>
5.8777513504

> <CNN_VS>
2.7895369530

> <CNNaffinity_variance>
0.1084239483

$$$$



 25 28  0  0  0  0  0  0  0  0999 V2000
   17.8229    0.2576   55.1777 C   0  0  0  0  0  0  0  0  0  0  0  0
   18.0537    0.9545   56.3469 C   0  0  0  0  0  0  0  0  0  0  0  0
   16.5494   -0.2471   54.9314 C   0  0  0  0  0  0  0  0  0  0  0  0
   17.0075    1.1342   57.2499 C   0  0  0  0  0  0  0  0  0  0  0  0
   11.2617   -0.2570   57.4855 C   0  0  0  0  0  0  0  0  0  0  0  0
   12.6673   -0.0596   57.2567 C   0  0  0  0  0  0  0  0  0  0  0  0
   15.4702   -0.0738   55.8380 C   0  0  0  0  0  0  0  0  0  0  0  0
   15.7004    0.6320   57.0243 C   0  0  0  0  0  0  0  0  0  0  0  0
   10.6429   -0.9494   56.4724 C   0  0  0  0  0  0  0  0  0  0  0  0
   13.0573   -0.6061   56.0552 C   0  0  0  0  0  0  0  0  0  0  0  0
   13.5321    0.6404   58.2062 C   0  0  0  0  0  0  0  0  0  0  0  0
    9.2215   -1.3403   56.3570 C   0  0  0  0  0  0  0  0  0  0  0  0
   14.2525   -0.6390   55.4411 N   0  0  0  0  0  0  0  0  0  0  0  0
   14.8205    0.9072   58.0364 N   0  0  0  0  0  0  0  0  0  0  0  0
   11.7368   -1.3647   55.2432 S   0  0  0  0  0  0  0  0  0  0  0  0
   14.2954   -1.1191   54.5457 H   0  0  0  0  0  0  0  0  0  0  0  0
   15.2263    1.4168   58.8198 H   0  0  0  0  0  0  0  0  0  0  0  0
   13.0242    0.2482   60.5778 C   0  0  0  0  0  0  0  0  0  0  0  0
   12.3068    2.3484   59.4777 C   0  0  0  0  0  0  0  0  0  0  0  0
   11.6471    0.0901   61.2053 C   0  0  0  0  0  0  0  0  0  0  0  0
   10.9219    2.2143   60.0934 C   0  0  0  0  0  0  0  0  0  0  0  0
    9.7129    1.3829   62.1150 C   0  0  0  0  0  0  0  0  0  0  0  0
   12.9557    1.0494   59.3633 N   0  0  0  0  0  0  0  0  0  0  0  0
   11.0334    1.4603   61.4019 N   0  0  0  0  0  0  0  0  0  0  0  0
   11.6657    1.9959   62.0126 H   0  0  0  0  0  0  0  0  0  0  0  0
  1  2  1  0  0  0
  1  3  2  0  0  0
  2  4  2  0  0  0
  3  7  1  0  0  0
  4  8  1  0  0  0
  5  6  1  0  0  0
  5  9  2  0  0  0
  6 10  2  0  0  0
  6 11  1  0  0  0
  7  8  2  0  0  0
  7 13  1  0  0  0
  8 14  1  0  0  0
  9 12  1  0  0  0
  9 15  1  0  0  0
 10 13  1  0  0  0
 10 15  1  0  0  0
 11 23  1  0  0  0
 11 14  2  0  0  0
 18 20  1  0  0  0
 18 23  1  0  0  0
 19 21  1  0  0  0
 19 23  1  0  0  0
 20 24  1  0  0  0
 21 24  1  0  0  0
 22 24  1  0  0  0
 13 16  1  0  0  0
 14 17  1  0  0  0
 24 25  1  0  0  0
M  CHG 1  14   1
M  CHG 1  24   1
M  END
> <minimizedAffinity>
-7.91238

> <CNNscore>
0.4619377255

> <CNNaffinity>
6.1652212143

> <CNN_VS>
2.8479483128

> <CNNaffinity_variance>
0.1687670052

$$$$



 25 28  0  0  0  0  0  0  0  0999 V2000
    8.9280    2.4371   60.2101 C   0  0  0  0  0  0  0  0  0  0  0  0
    9.9264    2.7521   61.1099 C   0  0  0  0  0  0  0  0  0  0  0  0
    9.2506    1.7061   59.0704 C   0  0  0  0  0  0  0  0  0  0  0  0
   11.2303    2.3314   60.8546 C   0  0  0  0  0  0  0  0  0  0  0  0
   13.9719   -0.8361   56.6765 C   0  0  0  0  0  0  0  0  0  0  0  0
   13.1341   -0.0612   57.5510 C   0  0  0  0  0  0  0  0  0  0  0  0
   10.5724    1.2673   58.7928 C   0  0  0  0  0  0  0  0  0  0  0  0
   11.5872    1.5849   59.7026 C   0  0  0  0  0  0  0  0  0  0  0  0
   13.2932   -1.3547   55.6000 C   0  0  0  0  0  0  0  0  0  0  0  0
   11.8334   -0.0372   57.1014 C   0  0  0  0  0  0  0  0  0  0  0  0
   13.6423    0.5970   58.7543 C   0  0  0  0  0  0  0  0  0  0  0  0
   13.8139   -2.1920   54.4980 C   0  0  0  0  0  0  0  0  0  0  0  0
   10.7298    0.5398   57.6071 N   0  0  0  0  0  0  0  0  0  0  0  0
   12.9197    1.2785   59.6338 N   0  0  0  0  0  0  0  0  0  0  0  0
   11.6528   -0.9207   55.6299 S   0  0  0  0  0  0  0  0  0  0  0  0
    9.8683    0.4235   57.0796 H   0  0  0  0  0  0  0  0  0  0  0  0
   13.4757    1.6427   60.4060 H   0  0  0  0  0  0  0  0  0  0  0  0
   15.9183    1.4709   58.4508 C   0  0  0  0  0  0  0  0  0  0  0  0
   15.5285   -0.5426   59.8399 C   0  0  0  0  0  0  0  0  0  0  0  0
   17.0786    0.7798   57.7498 C   0  0  0  0  0  0  0  0  0  0  0  0
   16.6847   -1.2561   59.1551 C   0  0  0  0  0  0  0  0  0  0  0  0
   18.9172   -0.8744   58.1013 C   0  0  0  0  0  0  0  0  0  0  0  0
   14.9749    0.4969   58.9829 N   0  0  0  0  0  0  0  0  0  0  0  0
   17.6973   -0.2283   58.6952 N   0  0  0  0  0  0  0  0  0  0  0  0
   18.0140    0.2859   59.5289 H   0  0  0  0  0  0  0  0  0  0  0  0
  1  2  1  0  0  0
  1  3  2  0  0  0
  2  4  2  0  0  0
  3  7  1  0  0  0
  4  8  1  0  0  0
  5  6  1  0  0  0
  5  9  2  0  0  0
  6 10  2  0  0  0
  6 11  1  0  0  0
  7  8  2  0  0  0
  7 13  1  0  0  0
  8 14  1  0  0  0
  9 12  1  0  0  0
  9 15  1  0  0  0
 10 13  1  0  0  0
 10 15  1  0  0  0
 11 23  1  0  0  0
 11 14  2  0  0  0
 18 20  1  0  0  0
 18 23  1  0  0  0
 19 21  1  0  0  0
 19 23  1  0  0  0
 20 24  1  0  0  0
 21 24  1  0  0  0
 22 24  1  0  0  0
 13 16  1  0  0  0
 14 17  1  0  0  0
 24 25  1  0  0  0
M  CHG 1  14   1
M  CHG 1  24   1
M  END
> <minimizedAffinity>
-8.42119

> <CNNscore>
0.4522671700

> <CNNaffinity>
6.3911113739

> <CNN_VS>
2.8904898167

> <CNNaffinity_variance>
0.0558565184

$$$$



 25 28  0  0  0  0  0  0  0  0999 V2000
   12.3109   -0.6542   53.7168 C   0  0  0  0  0  0  0  0  0  0  0  0
   13.5376   -0.5469   53.0929 C   0  0  0  0  0  0  0  0  0  0  0  0
   12.2550   -0.6316   55.1074 C   0  0  0  0  0  0  0  0  0  0  0  0
   14.6876   -0.4196   53.8700 C   0  0  0  0  0  0  0  0  0  0  0  0
   15.9422   -0.0431   59.6397 C   0  0  0  0  0  0  0  0  0  0  0  0
   15.4346   -0.1968   58.3034 C   0  0  0  0  0  0  0  0  0  0  0  0
   13.4147   -0.5016   55.9167 C   0  0  0  0  0  0  0  0  0  0  0  0
   14.6601   -0.3927   55.2878 C   0  0  0  0  0  0  0  0  0  0  0  0
   14.9588   -0.0908   60.5984 C   0  0  0  0  0  0  0  0  0  0  0  0
   14.0659   -0.3421   58.3048 C   0  0  0  0  0  0  0  0  0  0  0  0
   16.2993   -0.1908   57.1237 C   0  0  0  0  0  0  0  0  0  0  0  0
   15.0955    0.0262   62.0661 C   0  0  0  0  0  0  0  0  0  0  0  0
   13.1880   -0.4923   57.2981 N   0  0  0  0  0  0  0  0  0  0  0  0
   15.8968   -0.2711   55.8621 N   0  0  0  0  0  0  0  0  0  0  0  0
   13.4254   -0.3172   59.9072 S   0  0  0  0  0  0  0  0  0  0  0  0
   12.2089   -0.5918   57.5540 H   0  0  0  0  0  0  0  0  0  0  0  0
   16.6679   -0.2355   55.1971 H   0  0  0  0  0  0  0  0  0  0  0  0
   18.5086    0.6542   56.4595 C   0  0  0  0  0  0  0  0  0  0  0  0
   18.2502   -0.6666   58.5390 C   0  0  0  0  0  0  0  0  0  0  0  0
   19.7255   -0.1717   56.0696 C   0  0  0  0  0  0  0  0  0  0  0  0
   19.4645   -1.5069   58.1728 C   0  0  0  0  0  0  0  0  0  0  0  0
   21.6763   -1.4128   57.0155 C   0  0  0  0  0  0  0  0  0  0  0  0
   17.6327   -0.0950   57.3501 N   0  0  0  0  0  0  0  0  0  0  0  0
   20.4045   -0.6748   57.3260 N   0  0  0  0  0  0  0  0  0  0  0  0
   20.6718    0.1492   57.8823 H   0  0  0  0  0  0  0  0  0  0  0  0
  1  2  1  0  0  0
  1  3  2  0  0  0
  2  4  2  0  0  0
  3  7  1  0  0  0
  4  8  1  0  0  0
  5  6  1  0  0  0
  5  9  2  0  0  0
  6 10  2  0  0  0
  6 11  1  0  0  0
  7  8  2  0  0  0
  7 13  1  0  0  0
  8 14  1  0  0  0
  9 12  1  0  0  0
  9 15  1  0  0  0
 10 13  1  0  0  0
 10 15  1  0  0  0
 11 23  1  0  0  0
 11 14  2  0  0  0
 18 20  1  0  0  0
 18 23  1  0  0  0
 19 21  1  0  0  0
 19 23  1  0  0  0
 20 24  1  0  0  0
 21 24  1  0  0  0
 22 24  1  0  0  0
 13 16  1  0  0  0
 14 17  1  0  0  0
 24 25  1  0  0  0
M  CHG 1  14   1
M  CHG 1  24   1
M  END
> <minimizedAffinity>
-7.86279

> <CNNscore>
0.4426668882

> <CNNaffinity>
6.7055563927

> <CNN_VS>
2.9683277607

> <CNNaffinity_variance>
0.2656233311

$$$$



 33 37  0  0  0  0  0  0  0  0999 V2000
   16.0527    0.1926   60.4645 C   0  0  0  0  0  0  0  0  0  0  0  0
   14.2374    0.0035   58.7165 C   0  0  0  0  0  0  0  0  0  0  0  0
   15.0240   -0.0964   61.5501 C   0  0  0  0  0  0  0  0  0  0  0  0
   13.2226   -0.2844   59.8156 C   0  0  0  0  0  0  0  0  0  0  0  0
   15.6510   -0.4425   59.1234 C   0  0  0  0  0  0  0  0  0  0  0  0
   13.6524    0.3802   61.1101 N   0  0  0  0  0  0  0  0  0  0  0  0
   13.7456    1.3902   60.9037 H   0  0  0  0  0  0  0  0  0  0  0  0
   18.8564   -1.3552   58.6926 C   0  0  0  0  0  0  0  0  0  0  0  0
   20.1607   -1.5202   58.2055 C   0  0  0  0  0  0  0  0  0  0  0  0
   19.7061   -0.0889   56.2842 C   0  0  0  0  0  0  0  0  0  0  0  0
   17.9740   -0.5463   57.9616 C   0  0  0  0  0  0  0  0  0  0  0  0
   18.4200    0.0530   56.7966 C   0  0  0  0  0  0  0  0  0  0  0  0
   20.5754   -0.8979   57.0233 C   0  0  0  0  0  0  0  0  0  0  0  0
   16.6371   -0.1153   58.0642 C   0  0  0  0  0  0  0  0  0  0  0  0
   16.2805    0.6826   57.0532 N   0  0  0  0  0  0  0  0  0  0  0  0
   17.4112    0.7873   56.2526 O   0  0  0  0  0  0  0  0  0  0  0  0
   21.8313   -1.0785   56.5909 F   0  0  0  0  0  0  0  0  0  0  0  0
   12.6349    0.2379   62.1815 C   0  0  0  0  0  0  0  0  0  0  0  0
   11.2576    0.5537   61.6349 C   0  0  0  0  0  0  0  0  0  0  0  0
   10.2124   -0.2875   62.3078 C   0  0  0  0  0  0  0  0  0  0  0  0
    9.8153   -0.1921   63.5913 C   0  0  0  0  0  0  0  0  0  0  0  0
    9.5354   -1.3037   61.4432 C   0  0  0  0  0  0  0  0  0  0  0  0
    8.2373   -1.8449   63.4091 C   0  0  0  0  0  0  0  0  0  0  0  0
    7.0453   -4.0835   62.0145 C   0  0  0  0  0  0  0  0  0  0  0  0
    6.2382   -3.3987   63.0945 C   0  0  0  0  0  0  0  0  0  0  0  0
    7.8400   -3.0428   61.2491 C   0  0  0  0  0  0  0  0  0  0  0  0
    7.1793   -2.7212   64.0710 C   0  0  0  0  0  0  0  0  0  0  0  0
   10.4404    0.7675   64.5697 C   0  0  0  0  0  0  0  0  0  0  0  0
    8.8274   -0.9623   64.1531 N   0  0  0  0  0  0  0  0  0  0  0  0
    8.5597   -2.0741   62.0822 N   0  0  0  0  0  0  0  0  0  0  0  0
    9.8452   -1.4084   60.2567 O   0  0  0  0  0  0  0  0  0  0  0  0
    6.3973   -1.9339   64.9562 O   0  0  0  0  0  0  0  0  0  0  0  0
    5.7416   -2.5294   65.3520 H   0  0  0  0  0  0  0  0  0  0  0  0
  8  9  2  0  0  0
  8 11  1  0  0  0
  9 13  1  0  0  0
 10 12  1  0  0  0
 10 13  2  0  0  0
 11 12  2  0  0  0
 11 14  1  0  0  0
 12 16  1  0  0  0
 13 17  1  0  0  0
 14  5  1  0  0  0
 14 15  2  0  0  0
 20 21  2  0  0  0
 20 22  1  0  0  0
 20 19  1  0  0  0
 21 28  1  0  0  0
 21 29  1  0  0  0
 22 30  1  0  0  0
 22 31  2  0  0  0
 23 27  1  0  0  0
 23 29  2  0  0  0
 23 30  1  0  0  0
 24 25  1  0  0  0
 24 26  1  0  0  0
 25 27  1  0  0  0
  1  3  1  0  0  0
  1  5  1  0  0  0
  2  4  1  0  0  0
  2  5  1  0  0  0
 26 30  1  0  0  0
  3  6  1  0  0  0
  4  6  1  0  0  0
 27 32  1  0  0  0
 19 18  1  0  0  0
 18  6  1  0  0  0
 15 16  1  0  0  0
  6  7  1  0  0  0
 32 33  1  0  0  0
M  CHG 1   6   1
M  END
> <minimizedAffinity>
-11.35978

> <CNNscore>
0.7533615828

> <CNNaffinity>
7.3147249222

> <CNN_VS>
5.5106325150

> <CNNaffinity_variance>
0.1160629839

$$$$



 33 37  0  0  0  0  0  0  0  0999 V2000
   15.9135    0.2702   60.3133 C   0  0  0  0  0  0  0  0  0  0  0  0
   14.2692   -0.0085   58.4146 C   0  0  0  0  0  0  0  0  0  0  0  0
   14.7954   -0.0084   61.3097 C   0  0  0  0  0  0  0  0  0  0  0  0
   13.1638   -0.2855   59.4255 C   0  0  0  0  0  0  0  0  0  0  0  0
   15.6477   -0.4124   58.9618 C   0  0  0  0  0  0  0  0  0  0  0  0
   13.4612    0.4259   60.7324 N   0  0  0  0  0  0  0  0  0  0  0  0
   13.5543    1.4311   60.5038 H   0  0  0  0  0  0  0  0  0  0  0  0
   18.8526   -1.4033   58.7618 C   0  0  0  0  0  0  0  0  0  0  0  0
   20.1859   -1.5956   58.3730 C   0  0  0  0  0  0  0  0  0  0  0  0
   19.9166   -0.1241   56.4472 C   0  0  0  0  0  0  0  0  0  0  0  0
   18.0497   -0.5604   57.9793 C   0  0  0  0  0  0  0  0  0  0  0  0
   18.5989    0.0442   56.8621 C   0  0  0  0  0  0  0  0  0  0  0  0
   20.7058   -0.9669   57.2367 C   0  0  0  0  0  0  0  0  0  0  0  0
   16.7202   -0.0956   57.9868 C   0  0  0  0  0  0  0  0  0  0  0  0
   16.4627    0.7265   56.9652 N   0  0  0  0  0  0  0  0  0  0  0  0
   17.6539    0.8132   56.2552 O   0  0  0  0  0  0  0  0  0  0  0  0
   21.9861   -1.1743   56.8985 F   0  0  0  0  0  0  0  0  0  0  0  0
   12.3529    0.2936   61.7109 C   0  0  0  0  0  0  0  0  0  0  0  0
   11.2102    1.2122   61.3287 C   0  0  0  0  0  0  0  0  0  0  0  0
   10.2007    0.4846   60.4893 C   0  0  0  0  0  0  0  0  0  0  0  0
    9.7540    0.8584   59.2748 C   0  0  0  0  0  0  0  0  0  0  0  0
    9.6757   -0.7944   61.0611 C   0  0  0  0  0  0  0  0  0  0  0  0
    8.3950   -0.9699   59.0186 C   0  0  0  0  0  0  0  0  0  0  0  0
    7.0097   -3.2802   60.0773 C   0  0  0  0  0  0  0  0  0  0  0  0
    7.1973   -3.1796   58.5801 C   0  0  0  0  0  0  0  0  0  0  0  0
    8.2480   -2.7476   60.7727 C   0  0  0  0  0  0  0  0  0  0  0  0
    7.3591   -1.7233   58.1912 C   0  0  0  0  0  0  0  0  0  0  0  0
   10.1814    2.1389   58.6067 C   0  0  0  0  0  0  0  0  0  0  0  0
    8.8540    0.1390   58.5283 N   0  0  0  0  0  0  0  0  0  0  0  0
    8.7422   -1.4637   60.2647 N   0  0  0  0  0  0  0  0  0  0  0  0
   10.0758   -1.1907   62.1554 O   0  0  0  0  0  0  0  0  0  0  0  0
    7.7213   -1.6753   56.8196 O   0  0  0  0  0  0  0  0  0  0  0  0
    7.0380   -2.1643   56.3346 H   0  0  0  0  0  0  0  0  0  0  0  0
  8  9  2  0  0  0
  8 11  1  0  0  0
  9 13  1  0  0  0
 10 12  1  0  0  0
 10 13  2  0  0  0
 11 12  2  0  0  0
 11 14  1  0  0  0
 12 16  1  0  0  0
 13 17  1  0  0  0
 14  5  1  0  0  0
 14 15  2  0  0  0
 20 21  2  0  0  0
 20 22  1  0  0  0
 20 19  1  0  0  0
 21 28  1  0  0  0
 21 29  1  0  0  0
 22 30  1  0  0  0
 22 31  2  0  0  0
 23 27  1  0  0  0
 23 29  2  0  0  0
 23 30  1  0  0  0
 24 25  1  0  0  0
 24 26  1  0  0  0
 25 27  1  0  0  0
  1  3  1  0  0  0
  1  5  1  0  0  0
  2  4  1  0  0  0
  2  5  1  0  0  0
 26 30  1  0  0  0
  3  6  1  0  0  0
  4  6  1  0  0  0
 27 32  1  0  0  0
 19 18  1  0  0  0
 18  6  1  0  0  0
 15 16  1  0  0  0
  6  7  1  0  0  0
 32 33  1  0  0  0
M  CHG 1   6   1
M  END
> <minimizedAffinity>
-11.72280

> <CNNscore>
0.7414482236

> <CNNaffinity>
7.4701986313

> <CNN_VS>
5.5387654305

> <CNNaffinity_variance>
0.0719453245

$$$$



 33 37  0  0  0  0  0  0  0  0999 V2000
   15.3606    0.2451   59.8769 C   0  0  0  0  0  0  0  0  0  0  0  0
   13.8968    0.3585   57.8199 C   0  0  0  0  0  0  0  0  0  0  0  0
   14.1215    0.0221   60.7345 C   0  0  0  0  0  0  0  0  0  0  0  0
   12.6690    0.1342   58.6933 C   0  0  0  0  0  0  0  0  0  0  0  0
   15.1541   -0.2691   58.4430 C   0  0  0  0  0  0  0  0  0  0  0  0
   12.9147    0.6768   60.0888 N   0  0  0  0  0  0  0  0  0  0  0  0
   13.1503    1.6784   59.9761 H   0  0  0  0  0  0  0  0  0  0  0  0
   18.3524   -1.2579   58.7377 C   0  0  0  0  0  0  0  0  0  0  0  0
   19.7253   -1.4671   58.5454 C   0  0  0  0  0  0  0  0  0  0  0  0
   19.7265   -0.1090   56.5201 C   0  0  0  0  0  0  0  0  0  0  0  0
   17.6668   -0.4641   57.8064 C   0  0  0  0  0  0  0  0  0  0  0  0
   18.3653    0.0778   56.7417 C   0  0  0  0  0  0  0  0  0  0  0  0
   20.3976   -0.9024   57.4564 C   0  0  0  0  0  0  0  0  0  0  0  0
   16.3506   -0.0045   57.6064 C   0  0  0  0  0  0  0  0  0  0  0  0
   16.2377    0.7570   56.5141 N   0  0  0  0  0  0  0  0  0  0  0  0
   17.5148    0.8074   55.9690 O   0  0  0  0  0  0  0  0  0  0  0  0
   21.7111   -1.1240   57.3080 F   0  0  0  0  0  0  0  0  0  0  0  0
   11.7046    0.5987   60.9450 C   0  0  0  0  0  0  0  0  0  0  0  0
   11.8629   -0.5074   61.9682 C   0  0  0  0  0  0  0  0  0  0  0  0
   10.6337   -0.6222   62.8219 C   0  0  0  0  0  0  0  0  0  0  0  0
   10.3500    0.1107   63.9158 C   0  0  0  0  0  0  0  0  0  0  0  0
    9.6231   -1.6330   62.3797 C   0  0  0  0  0  0  0  0  0  0  0  0
    8.3135   -0.8813   64.2671 C   0  0  0  0  0  0  0  0  0  0  0  0
    6.3939   -2.9933   63.7855 C   0  0  0  0  0  0  0  0  0  0  0  0
    5.9052   -1.7100   64.4189 C   0  0  0  0  0  0  0  0  0  0  0  0
    7.4471   -2.6667   62.7440 C   0  0  0  0  0  0  0  0  0  0  0  0
    7.0603   -1.0265   65.1238 C   0  0  0  0  0  0  0  0  0  0  0  0
   11.2986    1.1361   64.4795 C   0  0  0  0  0  0  0  0  0  0  0  0
    9.1928   -0.0068   64.6451 N   0  0  0  0  0  0  0  0  0  0  0  0
    8.4811   -1.7229   63.1806 N   0  0  0  0  0  0  0  0  0  0  0  0
    9.8259   -2.3066   61.3699 O   0  0  0  0  0  0  0  0  0  0  0  0
    6.6195    0.2566   65.5409 O   0  0  0  0  0  0  0  0  0  0  0  0
    5.8250    0.1158   66.0798 H   0  0  0  0  0  0  0  0  0  0  0  0
  8  9  2  0  0  0
  8 11  1  0  0  0
  9 13  1  0  0  0
 10 12  1  0  0  0
 10 13  2  0  0  0
 11 12  2  0  0  0
 11 14  1  0  0  0
 12 16  1  0  0  0
 13 17  1  0  0  0
 14  5  1  0  0  0
 14 15  2  0  0  0
 20 21  2  0  0  0
 20 22  1  0  0  0
 20 19  1  0  0  0
 21 28  1  0  0  0
 21 29  1  0  0  0
 22 30  1  0  0  0
 22 31  2  0  0  0
 23 27  1  0  0  0
 23 29  2  0  0  0
 23 30  1  0  0  0
 24 25  1  0  0  0
 24 26  1  0  0  0
 25 27  1  0  0  0
  1  3  1  0  0  0
  1  5  1  0  0  0
  2  4  1  0  0  0
  2  5  1  0  0  0
 26 30  1  0  0  0
  3  6  1  0  0  0
  4  6  1  0  0  0
 27 32  1  0  0  0
 19 18  1  0  0  0
 18  6  1  0  0  0
 15 16  1  0  0  0
  6  7  1  0  0  0
 32 33  1  0  0  0
M  CHG 1   6   1
M  END
> <minimizedAffinity>
-11.49901

> <CNNscore>
0.6493856311

> <CNNaffinity>
7.1126775742

> <CNN_VS>
4.6188707352

> <CNNaffinity_variance>
0.0521036796

$$$$



 33 37  0  0  0  0  0  0  0  0999 V2000
   16.1718    0.3101   60.4766 C   0  0  0  0  0  0  0  0  0  0  0  0
   14.4497   -0.0933   58.6715 C   0  0  0  0  0  0  0  0  0  0  0  0
   15.1103    0.0416   61.5357 C   0  0  0  0  0  0  0  0  0  0  0  0
   13.4015   -0.3591   59.7445 C   0  0  0  0  0  0  0  0  0  0  0  0
   15.8637   -0.4352   59.1678 C   0  0  0  0  0  0  0  0  0  0  0  0
   13.7381    0.4138   61.0060 N   0  0  0  0  0  0  0  0  0  0  0  0
   13.7902    1.4109   60.7332 H   0  0  0  0  0  0  0  0  0  0  0  0
   19.0324   -1.4791   58.7634 C   0  0  0  0  0  0  0  0  0  0  0  0
   20.3356   -1.6910   58.2917 C   0  0  0  0  0  0  0  0  0  0  0  0
   19.9740   -0.1998   56.3964 C   0  0  0  0  0  0  0  0  0  0  0  0
   18.1977   -0.6164   58.0378 C   0  0  0  0  0  0  0  0  0  0  0  0
   18.6875   -0.0124   56.8930 C   0  0  0  0  0  0  0  0  0  0  0  0
   20.7954   -1.0622   57.1298 C   0  0  0  0  0  0  0  0  0  0  0  0
   16.8795   -0.1290   58.1305 C   0  0  0  0  0  0  0  0  0  0  0  0
   16.5740    0.7055   57.1326 N   0  0  0  0  0  0  0  0  0  0  0  0
   17.7205    0.7774   56.3510 O   0  0  0  0  0  0  0  0  0  0  0  0
   22.0487   -1.2888   56.7118 F   0  0  0  0  0  0  0  0  0  0  0  0
   12.6812    0.2911   62.0411 C   0  0  0  0  0  0  0  0  0  0  0  0
   11.3523    0.7597   61.4844 C   0  0  0  0  0  0  0  0  0  0  0  0
   10.3210   -0.3264   61.5839 C   0  0  0  0  0  0  0  0  0  0  0  0
    9.8048   -0.8357   62.7189 C   0  0  0  0  0  0  0  0  0  0  0  0
    9.8063   -0.8595   60.2842 C   0  0  0  0  0  0  0  0  0  0  0  0
    8.3850   -2.2727   61.6353 C   0  0  0  0  0  0  0  0  0  0  0  0
    7.5028   -3.6698   59.2589 C   0  0  0  0  0  0  0  0  0  0  0  0
    6.5511   -3.5742   60.4302 C   0  0  0  0  0  0  0  0  0  0  0  0
    8.2779   -2.3716   59.1379 C   0  0  0  0  0  0  0  0  0  0  0  0
    7.3448   -3.3854   61.7079 C   0  0  0  0  0  0  0  0  0  0  0  0
   10.2624   -0.4060   64.0882 C   0  0  0  0  0  0  0  0  0  0  0  0
    8.8347   -1.8063   62.7583 N   0  0  0  0  0  0  0  0  0  0  0  0
    8.8416   -1.8651   60.3933 N   0  0  0  0  0  0  0  0  0  0  0  0
   10.2280   -0.4052   59.2210 O   0  0  0  0  0  0  0  0  0  0  0  0
    6.4272   -3.1095   62.7552 O   0  0  0  0  0  0  0  0  0  0  0  0
    5.7880   -3.8392   62.7639 H   0  0  0  0  0  0  0  0  0  0  0  0
  8  9  2  0  0  0
  8 11  1  0  0  0
  9 13  1  0  0  0
 10 12  1  0  0  0
 10 13  2  0  0  0
 11 12  2  0  0  0
 11 14  1  0  0  0
 12 16  1  0  0  0
 13 17  1  0  0  0
 14  5  1  0  0  0
 14 15  2  0  0  0
 20 21  2  0  0  0
 20 22  1  0  0  0
 20 19  1  0  0  0
 21 28  1  0  0  0
 21 29  1  0  0  0
 22 30  1  0  0  0
 22 31  2  0  0  0
 23 27  1  0  0  0
 23 29  2  0  0  0
 23 30  1  0  0  0
 24 25  1  0  0  0
 24 26  1  0  0  0
 25 27  1  0  0  0
  1  3  1  0  0  0
  1  5  1  0  0  0
  2  4  1  0  0  0
  2  5  1  0  0  0
 26 30  1  0  0  0
  3  6  1  0  0  0
  4  6  1  0  0  0
 27 32  1  0  0  0
 19 18  1  0  0  0
 18  6  1  0  0  0
 15 16  1  0  0  0
  6  7  1  0  0  0
 32 33  1  0  0  0
M  CHG 1   6   1
M  END
> <minimizedAffinity>
-10.87884

> <CNNscore>
0.6470974684

> <CNNaffinity>
7.3620185852

> <CNN_VS>
4.7639436722

> <CNNaffinity_variance>
0.1638422757

$$$$



 33 37  0  0  0  0  0  0  0  0999 V2000
   16.2017    0.1205   60.3339 C   0  0  0  0  0  0  0  0  0  0  0  0
   14.4265   -0.0279   58.5412 C   0  0  0  0  0  0  0  0  0  0  0  0
   15.1451   -0.1741   61.3909 C   0  0  0  0  0  0  0  0  0  0  0  0
   13.3836   -0.3217   59.6120 C   0  0  0  0  0  0  0  0  0  0  0  0
   15.8261   -0.4923   58.9750 C   0  0  0  0  0  0  0  0  0  0  0  0
   13.7885    0.3210   60.9255 N   0  0  0  0  0  0  0  0  0  0  0  0
   13.8954    1.3328   60.7355 H   0  0  0  0  0  0  0  0  0  0  0  0
   19.0405   -1.4069   58.6213 C   0  0  0  0  0  0  0  0  0  0  0  0
   20.3567   -1.5706   58.1670 C   0  0  0  0  0  0  0  0  0  0  0  0
   19.9541   -0.1257   56.2444 C   0  0  0  0  0  0  0  0  0  0  0  0
   18.1784   -0.5918   57.8731 C   0  0  0  0  0  0  0  0  0  0  0  0
   18.6553    0.0147   56.7242 C   0  0  0  0  0  0  0  0  0  0  0  0
   20.8028   -0.9410   57.0002 C   0  0  0  0  0  0  0  0  0  0  0  0
   16.8398   -0.1594   57.9440 C   0  0  0  0  0  0  0  0  0  0  0  0
   16.5107    0.6459   56.9296 N   0  0  0  0  0  0  0  0  0  0  0  0
   17.6620    0.7543   56.1593 O   0  0  0  0  0  0  0  0  0  0  0  0
   22.0692   -1.1206   56.5993 F   0  0  0  0  0  0  0  0  0  0  0  0
   12.7447    0.1731   61.9706 C   0  0  0  0  0  0  0  0  0  0  0  0
   11.4063   -0.1303   61.3286 C   0  0  0  0  0  0  0  0  0  0  0  0
   10.2786    0.3107   62.2156 C   0  0  0  0  0  0  0  0  0  0  0  0
    9.7237    1.5375   62.2513 C   0  0  0  0  0  0  0  0  0  0  0  0
    9.7085   -0.7379   63.1177 C   0  0  0  0  0  0  0  0  0  0  0  0
    8.1693    0.9797   63.8412 C   0  0  0  0  0  0  0  0  0  0  0  0
    7.1462   -0.7901   65.8902 C   0  0  0  0  0  0  0  0  0  0  0  0
    6.2146    0.2499   65.3094 C   0  0  0  0  0  0  0  0  0  0  0  0
    8.0386   -1.3315   64.7896 C   0  0  0  0  0  0  0  0  0  0  0  0
    7.0300    1.4044   64.7615 C   0  0  0  0  0  0  0  0  0  0  0  0
   10.2276    2.6856   61.4166 C   0  0  0  0  0  0  0  0  0  0  0  0
    8.6674    1.8839   63.0568 N   0  0  0  0  0  0  0  0  0  0  0  0
    8.6546   -0.3139   63.9321 N   0  0  0  0  0  0  0  0  0  0  0  0
   10.1645   -1.8809   63.1000 O   0  0  0  0  0  0  0  0  0  0  0  0
    6.1485    2.2667   64.0585 O   0  0  0  0  0  0  0  0  0  0  0  0
    5.4439    2.5099   64.6794 H   0  0  0  0  0  0  0  0  0  0  0  0
  8  9  2  0  0  0
  8 11  1  0  0  0
  9 13  1  0  0  0
 10 12  1  0  0  0
 10 13  2  0  0  0
 11 12  2  0  0  0
 11 14  1  0  0  0
 12 16  1  0  0  0
 13 17  1  0  0  0
 14  5  1  0  0  0
 14 15  2  0  0  0
 20 21  2  0  0  0
 20 22  1  0  0  0
 20 19  1  0  0  0
 21 28  1  0  0  0
 21 29  1  0  0  0
 22 30  1  0  0  0
 22 31  2  0  0  0
 23 27  1  0  0  0
 23 29  2  0  0  0
 23 30  1  0  0  0
 24 25  1  0  0  0
 24 26  1  0  0  0
 25 27  1  0  0  0
  1  3  1  0  0  0
  1  5  1  0  0  0
  2  4  1  0  0  0
  2  5  1  0  0  0
 26 30  1  0  0  0
  3  6  1  0  0  0
  4  6  1  0  0  0
 27 32  1  0  0  0
 19 18  1  0  0  0
 18  6  1  0  0  0
 15 16  1  0  0  0
  6  7  1  0  0  0
 32 33  1  0  0  0
M  CHG 1   6   1
M  END
> <minimizedAffinity>
-10.57463

> <CNNscore>
0.5860506892

> <CNNaffinity>
7.1286897659

> <CNN_VS>
4.1777734756

> <CNNaffinity_variance>
0.1288616657

$$$$



 33 37  0  0  0  0  0  0  0  0999 V2000
   15.5108    0.1313   60.6738 C   0  0  0  0  0  0  0  0  0  0  0  0
   13.6315   -0.1124   59.0019 C   0  0  0  0  0  0  0  0  0  0  0  0
   14.5273   -0.1421   61.8046 C   0  0  0  0  0  0  0  0  0  0  0  0
   12.6625   -0.3843   60.1454 C   0  0  0  0  0  0  0  0  0  0  0  0
   15.0638   -0.5371   59.3636 C   0  0  0  0  0  0  0  0  0  0  0  0
   13.1354    0.3127   61.4074 N   0  0  0  0  0  0  0  0  0  0  0  0
   13.2111    1.3186   61.1754 H   0  0  0  0  0  0  0  0  0  0  0  0
   14.5449    0.3245   56.1571 C   0  0  0  0  0  0  0  0  0  0  0  0
   14.7054    0.6895   54.8129 C   0  0  0  0  0  0  0  0  0  0  0  0
   17.1352    0.6665   55.0173 C   0  0  0  0  0  0  0  0  0  0  0  0
   15.6974    0.1301   56.9325 C   0  0  0  0  0  0  0  0  0  0  0  0
   16.9391    0.3049   56.3468 C   0  0  0  0  0  0  0  0  0  0  0  0
   15.9775    0.8569   54.2558 C   0  0  0  0  0  0  0  0  0  0  0  0
   16.0053   -0.2252   58.2601 C   0  0  0  0  0  0  0  0  0  0  0  0
   17.3222   -0.2689   58.4831 N   0  0  0  0  0  0  0  0  0  0  0  0
   17.9106    0.0670   57.2700 O   0  0  0  0  0  0  0  0  0  0  0  0
   16.0898    1.2045   52.9661 F   0  0  0  0  0  0  0  0  0  0  0  0
   12.1612    0.1857   62.5202 C   0  0  0  0  0  0  0  0  0  0  0  0
   10.9619    1.0756   62.2646 C   0  0  0  0  0  0  0  0  0  0  0  0
   10.0777    0.4853   61.2050 C   0  0  0  0  0  0  0  0  0  0  0  0
    9.7572    1.0518   60.0258 C   0  0  0  0  0  0  0  0  0  0  0  0
    9.5352   -0.8792   61.4924 C   0  0  0  0  0  0  0  0  0  0  0  0
    8.4977   -0.7267   59.3145 C   0  0  0  0  0  0  0  0  0  0  0  0
    7.0812   -3.2020   59.8080 C   0  0  0  0  0  0  0  0  0  0  0  0
    7.4316   -2.8480   58.3802 C   0  0  0  0  0  0  0  0  0  0  0  0
    8.2153   -2.7763   60.7208 C   0  0  0  0  0  0  0  0  0  0  0  0
    7.5868   -1.3448   58.2593 C   0  0  0  0  0  0  0  0  0  0  0  0
   10.2133    2.4326   59.6331 C   0  0  0  0  0  0  0  0  0  0  0  0
    8.9712    0.4555   59.0712 N   0  0  0  0  0  0  0  0  0  0  0  0
    8.7197   -1.4182   60.4933 N   0  0  0  0  0  0  0  0  0  0  0  0
    9.8236   -1.4483   62.5448 O   0  0  0  0  0  0  0  0  0  0  0  0
    8.0983   -1.0613   56.9660 O   0  0  0  0  0  0  0  0  0  0  0  0
    7.4904   -1.4714   56.3308 H   0  0  0  0  0  0  0  0  0  0  0  0
  8  9  2  0  0  0
  8 11  1  0  0  0
  9 13  1  0  0  0
 10 12  1  0  0  0
 10 13  2  0  0  0
 11 12  2  0  0  0
 11 14  1  0  0  0
 12 16  1  0  0  0
 13 17  1  0  0  0
 14  5  1  0  0  0
 14 15  2  0  0  0
 20 21  2  0  0  0
 20 22  1  0  0  0
 20 19  1  0  0  0
 21 28  1  0  0  0
 21 29  1  0  0  0
 22 30  1  0  0  0
 22 31  2  0  0  0
 23 27  1  0  0  0
 23 29  2  0  0  0
 23 30  1  0  0  0
 24 25  1  0  0  0
 24 26  1  0  0  0
 25 27  1  0  0  0
  1  3  1  0  0  0
  1  5  1  0  0  0
  2  4  1  0  0  0
  2  5  1  0  0  0
 26 30  1  0  0  0
  3  6  1  0  0  0
  4  6  1  0  0  0
 27 32  1  0  0  0
 19 18  1  0  0  0
 18  6  1  0  0  0
 15 16  1  0  0  0
  6  7  1  0  0  0
 32 33  1  0  0  0
M  CHG 1   6   1
M  END
> <minimizedAffinity>
-10.65555

> <CNNscore>
0.5741022825

> <CNNaffinity>
7.4185876846

> <CNN_VS>
4.2590279579

> <CNNaffinity_variance>
0.0528432727

$$$$



 33 37  0  0  0  0  0  0  0  0999 V2000
   15.6966    0.4600   59.6133 C   0  0  0  0  0  0  0  0  0  0  0  0
   14.3202    0.2269   57.5066 C   0  0  0  0  0  0  0  0  0  0  0  0
   14.4390    0.2484   60.4467 C   0  0  0  0  0  0  0  0  0  0  0  0
   13.0733    0.0168   58.3562 C   0  0  0  0  0  0  0  0  0  0  0  0
   15.5887   -0.2309   58.2443 C   0  0  0  0  0  0  0  0  0  0  0  0
   13.2200    0.7342   59.6851 N   0  0  0  0  0  0  0  0  0  0  0  0
   13.3915    1.7304   59.4626 H   0  0  0  0  0  0  0  0  0  0  0  0
   18.7549   -1.3176   58.5406 C   0  0  0  0  0  0  0  0  0  0  0  0
   20.1231   -1.5608   58.3549 C   0  0  0  0  0  0  0  0  0  0  0  0
   20.1817   -0.1512   56.3659 C   0  0  0  0  0  0  0  0  0  0  0  0
   18.1008   -0.4807   57.6246 C   0  0  0  0  0  0  0  0  0  0  0  0
   18.8243    0.0685   56.5805 C   0  0  0  0  0  0  0  0  0  0  0  0
   20.8212   -0.9874   57.2869 C   0  0  0  0  0  0  0  0  0  0  0  0
   16.8000    0.0211   57.4253 C   0  0  0  0  0  0  0  0  0  0  0  0
   16.7190    0.8136   56.3524 N   0  0  0  0  0  0  0  0  0  0  0  0
   18.0020    0.8418   55.8198 O   0  0  0  0  0  0  0  0  0  0  0  0
   22.1294   -1.2423   57.1440 F   0  0  0  0  0  0  0  0  0  0  0  0
   11.9816    0.6682   60.5008 C   0  0  0  0  0  0  0  0  0  0  0  0
   12.0561   -0.4985   61.4646 C   0  0  0  0  0  0  0  0  0  0  0  0
   10.8035   -0.5904   62.2865 C   0  0  0  0  0  0  0  0  0  0  0  0
    9.7699   -1.4279   62.0758 C   0  0  0  0  0  0  0  0  0  0  0  0
   10.7294    0.3234   63.4688 C   0  0  0  0  0  0  0  0  0  0  0  0
    8.5881   -0.7100   63.9042 C   0  0  0  0  0  0  0  0  0  0  0  0
    8.0951    1.1904   66.0308 C   0  0  0  0  0  0  0  0  0  0  0  0
    7.4722   -0.1833   66.1373 C   0  0  0  0  0  0  0  0  0  0  0  0
    9.4799    1.0653   65.4245 C   0  0  0  0  0  0  0  0  0  0  0  0
    7.3207   -0.7748   64.7497 C   0  0  0  0  0  0  0  0  0  0  0  0
    9.7106   -2.3721   60.9037 C   0  0  0  0  0  0  0  0  0  0  0  0
    8.6584   -1.4997   62.8784 N   0  0  0  0  0  0  0  0  0  0  0  0
    9.5604    0.2209   64.2283 N   0  0  0  0  0  0  0  0  0  0  0  0
   11.6623    1.0866   63.7177 O   0  0  0  0  0  0  0  0  0  0  0  0
    6.9150   -2.1274   64.8935 O   0  0  0  0  0  0  0  0  0  0  0  0
    6.1101   -2.1199   65.4351 H   0  0  0  0  0  0  0  0  0  0  0  0
  8  9  2  0  0  0
  8 11  1  0  0  0
  9 13  1  0  0  0
 10 12  1  0  0  0
 10 13  2  0  0  0
 11 12  2  0  0  0
 11 14  1  0  0  0
 12 16  1  0  0  0
 13 17  1  0  0  0
 14  5  1  0  0  0
 14 15  2  0  0  0
 20 21  2  0  0  0
 20 22  1  0  0  0
 20 19  1  0  0  0
 21 28  1  0  0  0
 21 29  1  0  0  0
 22 30  1  0  0  0
 22 31  2  0  0  0
 23 27  1  0  0  0
 23 29  2  0  0  0
 23 30  1  0  0  0
 24 25  1  0  0  0
 24 26  1  0  0  0
 25 27  1  0  0  0
  1  3  1  0  0  0
  1  5  1  0  0  0
  2  4  1  0  0  0
  2  5  1  0  0  0
 26 30  1  0  0  0
  3  6  1  0  0  0
  4  6  1  0  0  0
 27 32  1  0  0  0
 19 18  1  0  0  0
 18  6  1  0  0  0
 15 16  1  0  0  0
  6  7  1  0  0  0
 32 33  1  0  0  0
M  CHG 1   6   1
M  END
> <minimizedAffinity>
-11.81953

> <CNNscore>
0.5569205284

> <CNNaffinity>
7.0327529907

> <CNN_VS>
3.9166846275

> <CNNaffinity_variance>
0.0609293468

$$$$



 33 37  0  0  0  0  0  0  0  0999 V2000
   15.2072   -0.3434   60.8288 C   0  0  0  0  0  0  0  0  0  0  0  0
   13.4211    0.6896   59.3695 C   0  0  0  0  0  0  0  0  0  0  0  0
   14.1553   -0.6386   61.8904 C   0  0  0  0  0  0  0  0  0  0  0  0
   12.3829    0.3861   60.4421 C   0  0  0  0  0  0  0  0  0  0  0  0
   14.5919   -0.3051   59.4206 C   0  0  0  0  0  0  0  0  0  0  0  0
   13.0343    0.3808   61.8125 N   0  0  0  0  0  0  0  0  0  0  0  0
   13.4747    1.3100   61.9309 H   0  0  0  0  0  0  0  0  0  0  0  0
   14.3603    0.2643   56.1167 C   0  0  0  0  0  0  0  0  0  0  0  0
   14.6363    0.5481   54.7717 C   0  0  0  0  0  0  0  0  0  0  0  0
   17.0166    0.8053   55.2351 C   0  0  0  0  0  0  0  0  0  0  0  0
   15.4299    0.2527   57.0240 C   0  0  0  0  0  0  0  0  0  0  0  0
   16.7066    0.5199   56.5614 C   0  0  0  0  0  0  0  0  0  0  0  0
   15.9406    0.8134   54.3414 C   0  0  0  0  0  0  0  0  0  0  0  0
   15.6176    0.0285   58.4017 C   0  0  0  0  0  0  0  0  0  0  0  0
   16.8978    0.1449   58.7666 N   0  0  0  0  0  0  0  0  0  0  0  0
   17.5847    0.4559   57.5995 O   0  0  0  0  0  0  0  0  0  0  0  0
   16.1646    1.0786   53.0467 F   0  0  0  0  0  0  0  0  0  0  0  0
   12.0444    0.2159   62.9064 C   0  0  0  0  0  0  0  0  0  0  0  0
   10.6876    0.7205   62.4594 C   0  0  0  0  0  0  0  0  0  0  0  0
    9.5940   -0.1754   62.9639 C   0  0  0  0  0  0  0  0  0  0  0  0
    8.9219   -0.0397   64.1232 C   0  0  0  0  0  0  0  0  0  0  0  0
    9.2062   -1.3044   62.0621 C   0  0  0  0  0  0  0  0  0  0  0  0
    7.5620   -1.8468   63.7488 C   0  0  0  0  0  0  0  0  0  0  0  0
    6.8883   -4.2733   62.3222 C   0  0  0  0  0  0  0  0  0  0  0  0
    5.8130   -3.6048   63.1490 C   0  0  0  0  0  0  0  0  0  0  0  0
    7.7418   -3.2094   61.6586 C   0  0  0  0  0  0  0  0  0  0  0  0
    6.4612   -2.7794   64.2428 C   0  0  0  0  0  0  0  0  0  0  0  0
    9.2393    1.0352   65.1295 C   0  0  0  0  0  0  0  0  0  0  0  0
    7.9023   -0.8663   64.5257 N   0  0  0  0  0  0  0  0  0  0  0  0
    8.1819   -2.1253   62.5425 N   0  0  0  0  0  0  0  0  0  0  0  0
    9.7732   -1.4519   60.9798 O   0  0  0  0  0  0  0  0  0  0  0  0
    5.4442   -2.0189   64.8768 O   0  0  0  0  0  0  0  0  0  0  0  0
    4.7694   -2.6498   65.1732 H   0  0  0  0  0  0  0  0  0  0  0  0
  8  9  2  0  0  0
  8 11  1  0  0  0
  9 13  1  0  0  0
 10 12  1  0  0  0
 10 13  2  0  0  0
 11 12  2  0  0  0
 11 14  1  0  0  0
 12 16  1  0  0  0
 13 17  1  0  0  0
 14  5  1  0  0  0
 14 15  2  0  0  0
 20 21  2  0  0  0
 20 22  1  0  0  0
 20 19  1  0  0  0
 21 28  1  0  0  0
 21 29  1  0  0  0
 22 30  1  0  0  0
 22 31  2  0  0  0
 23 27  1  0  0  0
 23 29  2  0  0  0
 23 30  1  0  0  0
 24 25  1  0  0  0
 24 26  1  0  0  0
 25 27  1  0  0  0
  1  3  1  0  0  0
  1  5  1  0  0  0
  2  4  1  0  0  0
  2  5  1  0  0  0
 26 30  1  0  0  0
  3  6  1  0  0  0
  4  6  1  0  0  0
 27 32  1  0  0  0
 19 18  1  0  0  0
 18  6  1  0  0  0
 15 16  1  0  0  0
  6  7  1  0  0  0
 32 33  1  0  0  0
M  CHG 1   6   1
M  END
> <minimizedAffinity>
-10.07386

> <CNNscore>
0.5081838369

> <CNNaffinity>
6.9688081741

> <CNN_VS>
3.5414357185

> <CNNaffinity_variance>
0.0306382123

$$$$



 33 37  0  0  0  0  0  0  0  0999 V2000
   16.2496    0.0646   60.0926 C   0  0  0  0  0  0  0  0  0  0  0  0
   14.6048    0.2035   58.1789 C   0  0  0  0  0  0  0  0  0  0  0  0
   15.0930   -0.1632   61.0574 C   0  0  0  0  0  0  0  0  0  0  0  0
   13.4608   -0.0258   59.1584 C   0  0  0  0  0  0  0  0  0  0  0  0
   15.9110   -0.4344   58.6785 C   0  0  0  0  0  0  0  0  0  0  0  0
   13.8351    0.5019   60.5309 N   0  0  0  0  0  0  0  0  0  0  0  0
   14.0634    1.5038   60.4071 H   0  0  0  0  0  0  0  0  0  0  0  0
   19.1123   -1.4567   58.6568 C   0  0  0  0  0  0  0  0  0  0  0  0
   20.4592   -1.6745   58.3339 C   0  0  0  0  0  0  0  0  0  0  0  0
   20.2864   -0.2797   56.3412 C   0  0  0  0  0  0  0  0  0  0  0  0
   18.3515   -0.6400   57.8074 C   0  0  0  0  0  0  0  0  0  0  0  0
   18.9537   -0.0849   56.6918 C   0  0  0  0  0  0  0  0  0  0  0  0
   21.0332   -1.0960   57.1970 C   0  0  0  0  0  0  0  0  0  0  0  0
   17.0273   -0.1652   57.7388 C   0  0  0  0  0  0  0  0  0  0  0  0
   16.8214    0.6171   56.6752 N   0  0  0  0  0  0  0  0  0  0  0  0
   18.0428    0.6662   56.0145 O   0  0  0  0  0  0  0  0  0  0  0  0
   22.3248   -1.3264   56.9230 F   0  0  0  0  0  0  0  0  0  0  0  0
   12.7078    0.4190   61.4932 C   0  0  0  0  0  0  0  0  0  0  0  0
   11.4107    0.7968   60.8074 C   0  0  0  0  0  0  0  0  0  0  0  0
   10.3282   -0.1897   61.1359 C   0  0  0  0  0  0  0  0  0  0  0  0
    9.7534   -1.0582   60.2818 C   0  0  0  0  0  0  0  0  0  0  0  0
    9.8804   -0.2170   62.5632 C   0  0  0  0  0  0  0  0  0  0  0  0
    8.3969   -1.9965   61.8738 C   0  0  0  0  0  0  0  0  0  0  0  0
    7.1563   -1.9850   64.4888 C   0  0  0  0  0  0  0  0  0  0  0  0
    7.1862   -3.2835   63.7143 C   0  0  0  0  0  0  0  0  0  0  0  0
    8.4537   -1.2346   64.2560 C   0  0  0  0  0  0  0  0  0  0  0  0
    7.2896   -2.9818   62.2323 C   0  0  0  0  0  0  0  0  0  0  0  0
   10.0940   -1.1071   58.8154 C   0  0  0  0  0  0  0  0  0  0  0  0
    8.7894   -1.9683   60.6385 N   0  0  0  0  0  0  0  0  0  0  0  0
    8.8772   -1.1457   62.8548 N   0  0  0  0  0  0  0  0  0  0  0  0
   10.3966    0.5387   63.3860 O   0  0  0  0  0  0  0  0  0  0  0  0
    7.5069   -4.2081   61.5512 O   0  0  0  0  0  0  0  0  0  0  0  0
    6.7828   -4.8005   61.8079 H   0  0  0  0  0  0  0  0  0  0  0  0
  8  9  2  0  0  0
  8 11  1  0  0  0
  9 13  1  0  0  0
 10 12  1  0  0  0
 10 13  2  0  0  0
 11 12  2  0  0  0
 11 14  1  0  0  0
 12 16  1  0  0  0
 13 17  1  0  0  0
 14  5  1  0  0  0
 14 15  2  0  0  0
 20 21  2  0  0  0
 20 22  1  0  0  0
 20 19  1  0  0  0
 21 28  1  0  0  0
 21 29  1  0  0  0
 22 30  1  0  0  0
 22 31  2  0  0  0
 23 27  1  0  0  0
 23 29  2  0  0  0
 23 30  1  0  0  0
 24 25  1  0  0  0
 24 26  1  0  0  0
 25 27  1  0  0  0
  1  3  1  0  0  0
  1  5  1  0  0  0
  2  4  1  0  0  0
  2  5  1  0  0  0
 26 30  1  0  0  0
  3  6  1  0  0  0
  4  6  1  0  0  0
 27 32  1  0  0  0
 19 18  1  0  0  0
 18  6  1  0  0  0
 15 16  1  0  0  0
  6  7  1  0  0  0
 32 33  1  0  0  0
M  CHG 1   6   1
M  END
> <minimizedAffinity>
-10.57719

> <CNNscore>
0.4909210205

> <CNNaffinity>
7.0724592209

> <CNN_VS>
3.4720189571

> <CNNaffinity_variance>
0.1406284273

$$$$



 33 35  0  0  0  0  0  0  0  0999 V2000
   15.4494    0.8855   58.4346 C   0  0  0  0  0  0  0  0  0  0  0  0
   14.0940    0.5782   58.3542 N   0  0  0  0  0  0  0  0  0  0  0  0
   16.3144   -0.0458   57.8200 N   0  0  0  0  0  0  0  0  0  0  0  0
   15.8576    1.9067   58.9959 O   0  0  0  0  0  0  0  0  0  0  0  0
   13.8127   -0.2730   57.8823 H   0  0  0  0  0  0  0  0  0  0  0  0
   18.2536    0.3472   56.3792 C   0  0  0  0  0  0  0  0  0  0  0  0
   18.4499   -1.0475   58.4738 C   0  0  0  0  0  0  0  0  0  0  0  0
   19.7697    0.4732   56.3301 C   0  0  0  0  0  0  0  0  0  0  0  0
   19.9649   -0.9134   58.4117 C   0  0  0  0  0  0  0  0  0  0  0  0
   17.7462    0.1366   57.8073 C   0  0  0  0  0  0  0  0  0  0  0  0
   20.4005   -1.9644   56.1590 C   0  0  0  0  0  0  0  0  0  0  0  0
   20.4310   -0.7108   56.9911 N   0  0  0  0  0  0  0  0  0  0  0  0
   21.4586   -0.4550   57.0653 H   0  0  0  0  0  0  0  0  0  0  0  0
   13.0740    1.4314   58.9208 C   0  0  0  0  0  0  0  0  0  0  0  0
   11.4911   -0.1356   57.7657 C   0  0  0  0  0  0  0  0  0  0  0  0
   10.6161    1.3904   59.4219 C   0  0  0  0  0  0  0  0  0  0  0  0
   10.2094   -0.6452   57.5581 C   0  0  0  0  0  0  0  0  0  0  0  0
    9.3344    0.8808   59.2143 C   0  0  0  0  0  0  0  0  0  0  0  0
   11.6945    0.8822   58.6977 C   0  0  0  0  0  0  0  0  0  0  0  0
    9.1311   -0.1370   58.2824 C   0  0  0  0  0  0  0  0  0  0  0  0
    7.8803   -0.6336   58.0789 O   0  0  0  0  0  0  0  0  0  0  0  0
    7.7643   -2.0428   57.8879 C   0  0  0  0  0  0  0  0  0  0  0  0
    6.3172   -3.7057   59.1261 C   0  0  0  0  0  0  0  0  0  0  0  0
    8.7426   -3.4552   59.7198 C   0  0  0  0  0  0  0  0  0  0  0  0
    7.4916   -2.7301   59.2287 C   0  0  0  0  0  0  0  0  0  0  0  0
   15.8094   -1.2519   57.1592 C   0  0  0  0  0  0  0  0  0  0  0  0
   15.3722    0.1688   55.1376 C   0  0  0  0  0  0  0  0  0  0  0  0
   13.9288   -1.7206   55.5666 C   0  0  0  0  0  0  0  0  0  0  0  0
   14.6367    0.4706   53.9916 C   0  0  0  0  0  0  0  0  0  0  0  0
   13.1931   -1.4186   54.4205 C   0  0  0  0  0  0  0  0  0  0  0  0
   15.0184   -0.9269   55.9251 C   0  0  0  0  0  0  0  0  0  0  0  0
   13.5470   -0.3230   53.6331 C   0  0  0  0  0  0  0  0  0  0  0  0
   12.8389   -0.0316   52.5341 F   0  0  0  0  0  0  0  0  0  0  0  0
 15 17  2  0  0  0
 15 19  1  0  0  0
 16 18  1  0  0  0
 16 19  2  0  0  0
 27 29  2  0  0  0
 27 31  1  0  0  0
 28 30  1  0  0  0
 28 31  2  0  0  0
 17 20  1  0  0  0
 18 20  2  0  0  0
 29 32  1  0  0  0
 30 32  2  0  0  0
 19 14  1  0  0  0
 31 26  1  0  0  0
 20 21  1  0  0  0
 32 33  1  0  0  0
  1  2  1  0  0  0
  1  3  1  0  0  0
  1  4  2  0  0  0
  6  8  1  0  0  0
  6 10  1  0  0  0
  7  9  1  0  0  0
  7 10  1  0  0  0
  8 12  1  0  0  0
  9 12  1  0  0  0
 10  3  1  0  0  0
 23 25  1  0  0  0
 24 25  1  0  0  0
 11 12  1  0  0  0
 14  2  1  0  0  0
 26  3  1  0  0  0
 22 25  1  0  0  0
 22 21  1  0  0  0
  2  5  1  0  0  0
 12 13  1  0  0  0
M  CHG 1  12   1
M  END
> <minimizedAffinity>
-8.68485

> <CNNscore>
0.3230809569

> <CNNaffinity>
6.8816742897

> <CNN_VS>
2.2233378887

> <CNNaffinity_variance>
0.0572812557

$$$$



 33 35  0  0  0  0  0  0  0  0999 V2000
   12.4903    0.0482   59.9287 C   0  0  0  0  0  0  0  0  0  0  0  0
   13.2813    0.4257   61.0103 N   0  0  0  0  0  0  0  0  0  0  0  0
   11.2461    0.7087   59.8344 N   0  0  0  0  0  0  0  0  0  0  0  0
   12.8615   -0.7971   59.1087 O   0  0  0  0  0  0  0  0  0  0  0  0
   12.9287    1.1242   61.6538 H   0  0  0  0  0  0  0  0  0  0  0  0
    8.9535    0.0234   59.3194 C   0  0  0  0  0  0  0  0  0  0  0  0
   10.8755   -0.6311   57.8197 C   0  0  0  0  0  0  0  0  0  0  0  0
    7.9754   -0.3362   58.2099 C   0  0  0  0  0  0  0  0  0  0  0  0
    9.8856   -0.9872   56.7195 C   0  0  0  0  0  0  0  0  0  0  0  0
   10.3177    0.4368   58.7631 C   0  0  0  0  0  0  0  0  0  0  0  0
    8.5505   -2.7739   57.9002 C   0  0  0  0  0  0  0  0  0  0  0  0
    8.5543   -1.3930   57.3020 N   0  0  0  0  0  0  0  0  0  0  0  0
    7.8904   -1.4495   56.4755 H   0  0  0  0  0  0  0  0  0  0  0  0
   14.5882   -0.1445   61.2472 C   0  0  0  0  0  0  0  0  0  0  0  0
   15.6881    1.2931   59.5097 C   0  0  0  0  0  0  0  0  0  0  0  0
   16.1553   -1.0773   59.5244 C   0  0  0  0  0  0  0  0  0  0  0  0
   16.5337    1.4529   58.4120 C   0  0  0  0  0  0  0  0  0  0  0  0
   17.0009   -0.9175   58.4267 C   0  0  0  0  0  0  0  0  0  0  0  0
   15.4989    0.0279   60.0660 C   0  0  0  0  0  0  0  0  0  0  0  0
   17.1900    0.3477   57.8705 C   0  0  0  0  0  0  0  0  0  0  0  0
   18.0142    0.5036   56.7986 O   0  0  0  0  0  0  0  0  0  0  0  0
   18.7674   -0.6363   56.3875 C   0  0  0  0  0  0  0  0  0  0  0  0
   20.1090   -1.5082   58.3451 C   0  0  0  0  0  0  0  0  0  0  0  0
   21.2179   -1.1217   56.1273 C   0  0  0  0  0  0  0  0  0  0  0  0
   20.1304   -0.6402   57.0852 C   0  0  0  0  0  0  0  0  0  0  0  0
   10.8244    1.7089   60.8184 C   0  0  0  0  0  0  0  0  0  0  0  0
   11.2129    1.6383   63.2963 C   0  0  0  0  0  0  0  0  0  0  0  0
    9.7431   -0.0010   62.3016 C   0  0  0  0  0  0  0  0  0  0  0  0
   10.9932    1.0731   64.5524 C   0  0  0  0  0  0  0  0  0  0  0  0
    9.5235   -0.5663   63.5577 C   0  0  0  0  0  0  0  0  0  0  0  0
   10.5877    1.1013   62.1709 C   0  0  0  0  0  0  0  0  0  0  0  0
   10.1486   -0.0293   64.6831 C   0  0  0  0  0  0  0  0  0  0  0  0
    9.9397   -0.5739   65.8890 F   0  0  0  0  0  0  0  0  0  0  0  0
 15 17  2  0  0  0
 15 19  1  0  0  0
 16 18  1  0  0  0
 16 19  2  0  0  0
 27 29  2  0  0  0
 27 31  1  0  0  0
 28 30  1  0  0  0
 28 31  2  0  0  0
 17 20  1  0  0  0
 18 20  2  0  0  0
 29 32  1  0  0  0
 30 32  2  0  0  0
 19 14  1  0  0  0
 31 26  1  0  0  0
 20 21  1  0  0  0
 32 33  1  0  0  0
  1  2  1  0  0  0
  1  3  1  0  0  0
  1  4  2  0  0  0
  6  8  1  0  0  0
  6 10  1  0  0  0
  7  9  1  0  0  0
  7 10  1  0  0  0
  8 12  1  0  0  0
  9 12  1  0  0  0
 10  3  1  0  0  0
 23 25  1  0  0  0
 24 25  1  0  0  0
 11 12  1  0  0  0
 14  2  1  0  0  0
 26  3  1  0  0  0
 22 25  1  0  0  0
 22 21  1  0  0  0
  2  5  1  0  0  0
 12 13  1  0  0  0
M  CHG 1  12   1
M  END
> <minimizedAffinity>
-8.64179

> <CNNscore>
0.3055559099

> <CNNaffinity>
6.6467080116

> <CNN_VS>
2.0309410095

> <CNNaffinity_variance>
0.0605755821

$$$$



 33 35  0  0  0  0  0  0  0  0999 V2000
    7.2593   -3.4013   61.7117 C   0  0  0  0  0  0  0  0  0  0  0  0
    8.4457   -3.0503   61.0735 N   0  0  0  0  0  0  0  0  0  0  0  0
    7.3123   -3.3991   63.1225 N   0  0  0  0  0  0  0  0  0  0  0  0
    6.2351   -3.6831   61.0823 O   0  0  0  0  0  0  0  0  0  0  0  0
    9.2573   -2.8283   61.6376 H   0  0  0  0  0  0  0  0  0  0  0  0
    5.5491   -5.0582   63.4825 C   0  0  0  0  0  0  0  0  0  0  0  0
    5.1272   -2.6024   63.8857 C   0  0  0  0  0  0  0  0  0  0  0  0
    4.2924   -5.3959   64.2722 C   0  0  0  0  0  0  0  0  0  0  0  0
    3.8728   -2.9551   64.6725 C   0  0  0  0  0  0  0  0  0  0  0  0
    6.1617   -3.7291   63.9293 C   0  0  0  0  0  0  0  0  0  0  0  0
    2.5711   -4.1754   62.8879 C   0  0  0  0  0  0  0  0  0  0  0  0
    3.2935   -4.2673   64.2048 N   0  0  0  0  0  0  0  0  0  0  0  0
    2.5424   -4.5126   64.9139 H   0  0  0  0  0  0  0  0  0  0  0  0
    8.5597   -2.9916   59.6337 C   0  0  0  0  0  0  0  0  0  0  0  0
   10.2394   -1.1972   60.1378 C   0  0  0  0  0  0  0  0  0  0  0  0
    9.8439   -1.8067   57.8335 C   0  0  0  0  0  0  0  0  0  0  0  0
   11.1791   -0.2521   59.7264 C   0  0  0  0  0  0  0  0  0  0  0  0
   10.7836   -0.8615   57.4222 C   0  0  0  0  0  0  0  0  0  0  0  0
    9.5718   -1.9746   59.1913 C   0  0  0  0  0  0  0  0  0  0  0  0
   11.4512   -0.0842   58.3687 C   0  0  0  0  0  0  0  0  0  0  0  0
   12.3673    0.8389   57.9675 O   0  0  0  0  0  0  0  0  0  0  0  0
   13.2801    0.4455   56.9439 C   0  0  0  0  0  0  0  0  0  0  0  0
   14.7547    0.9009   58.9465 C   0  0  0  0  0  0  0  0  0  0  0  0
   15.4874   -0.7285   57.1841 C   0  0  0  0  0  0  0  0  0  0  0  0
   14.7188    0.5631   57.4545 C   0  0  0  0  0  0  0  0  0  0  0  0
    8.5382   -3.0617   63.8504 C   0  0  0  0  0  0  0  0  0  0  0  0
    8.7934   -0.5679   63.7413 C   0  0  0  0  0  0  0  0  0  0  0  0
    8.0551   -1.5729   65.8106 C   0  0  0  0  0  0  0  0  0  0  0  0
    8.7214    0.6950   64.3289 C   0  0  0  0  0  0  0  0  0  0  0  0
    7.9832   -0.3099   66.3983 C   0  0  0  0  0  0  0  0  0  0  0  0
    8.4602   -1.7019   64.4822 C   0  0  0  0  0  0  0  0  0  0  0  0
    8.3164    0.8241   65.6575 C   0  0  0  0  0  0  0  0  0  0  0  0
    8.2499    2.0367   66.2227 F   0  0  0  0  0  0  0  0  0  0  0  0
 15 17  2  0  0  0
 15 19  1  0  0  0
 16 18  1  0  0  0
 16 19  2  0  0  0
 27 29  2  0  0  0
 27 31  1  0  0  0
 28 30  1  0  0  0
 28 31  2  0  0  0
 17 20  1  0  0  0
 18 20  2  0  0  0
 29 32  1  0  0  0
 30 32  2  0  0  0
 19 14  1  0  0  0
 31 26  1  0  0  0
 20 21  1  0  0  0
 32 33  1  0  0  0
  1  2  1  0  0  0
  1  3  1  0  0  0
  1  4  2  0  0  0
  6  8  1  0  0  0
  6 10  1  0  0  0
  7  9  1  0  0  0
  7 10  1  0  0  0
  8 12  1  0  0  0
  9 12  1  0  0  0
 10  3  1  0  0  0
 23 25  1  0  0  0
 24 25  1  0  0  0
 11 12  1  0  0  0
 14  2  1  0  0  0
 26  3  1  0  0  0
 22 25  1  0  0  0
 22 21  1  0  0  0
  2  5  1  0  0  0
 12 13  1  0  0  0
M  CHG 1  12   1
M  END
> <minimizedAffinity>
-8.45516

> <CNNscore>
0.2944813669

> <CNNaffinity>
6.1040964127

> <CNN_VS>
1.7975426912

> <CNNaffinity_variance>
0.2453730553

$$$$



 33 35  0  0  0  0  0  0  0  0999 V2000
   12.1330   -0.2262   62.2112 C   0  0  0  0  0  0  0  0  0  0  0  0
   13.0642   -0.5004   61.2134 N   0  0  0  0  0  0  0  0  0  0  0  0
   10.7893   -0.4918   61.8688 N   0  0  0  0  0  0  0  0  0  0  0  0
   12.4669    0.2081   63.3178 O   0  0  0  0  0  0  0  0  0  0  0  0
   12.7365   -0.8555   60.3229 H   0  0  0  0  0  0  0  0  0  0  0  0
   10.1700    0.5935   63.9735 C   0  0  0  0  0  0  0  0  0  0  0  0
    9.1308   -1.6016   63.2862 C   0  0  0  0  0  0  0  0  0  0  0  0
    9.0666    0.7844   65.0044 C   0  0  0  0  0  0  0  0  0  0  0  0
    8.0339   -1.3977   64.3217 C   0  0  0  0  0  0  0  0  0  0  0  0
    9.7075   -0.2708   62.7986 C   0  0  0  0  0  0  0  0  0  0  0  0
    9.4346   -1.2741   66.4174 C   0  0  0  0  0  0  0  0  0  0  0  0
    8.5240   -0.5455   65.4662 N   0  0  0  0  0  0  0  0  0  0  0  0
    7.6588   -0.3145   66.0364 H   0  0  0  0  0  0  0  0  0  0  0  0
   14.4824   -0.2961   61.4037 C   0  0  0  0  0  0  0  0  0  0  0  0
   14.5573    0.4558   59.0111 C   0  0  0  0  0  0  0  0  0  0  0  0
   16.5270   -0.5594   59.9739 C   0  0  0  0  0  0  0  0  0  0  0  0
   15.2295    0.6103   57.7988 C   0  0  0  0  0  0  0  0  0  0  0  0
   17.1993   -0.4048   58.7616 C   0  0  0  0  0  0  0  0  0  0  0  0
   15.2060   -0.1290   60.0988 C   0  0  0  0  0  0  0  0  0  0  0  0
   16.5504    0.1801   57.6740 C   0  0  0  0  0  0  0  0  0  0  0  0
   17.2059    0.3298   56.4906 O   0  0  0  0  0  0  0  0  0  0  0  0
   18.4839    0.9628   56.5318 C   0  0  0  0  0  0  0  0  0  0  0  0
   20.3852   -0.6541   56.9358 C   0  0  0  0  0  0  0  0  0  0  0  0
   18.8660   -0.9601   54.9619 C   0  0  0  0  0  0  0  0  0  0  0  0
   19.5350    0.0587   55.8819 C   0  0  0  0  0  0  0  0  0  0  0  0
   10.4141   -1.0070   60.5496 C   0  0  0  0  0  0  0  0  0  0  0  0
   10.6465    1.3394   59.6913 C   0  0  0  0  0  0  0  0  0  0  0  0
   11.1223   -0.4988   58.1974 C   0  0  0  0  0  0  0  0  0  0  0  0
   10.9446    2.2444   58.6727 C   0  0  0  0  0  0  0  0  0  0  0  0
   11.4203    0.4062   57.1787 C   0  0  0  0  0  0  0  0  0  0  0  0
   10.7355   -0.0323   59.4537 C   0  0  0  0  0  0  0  0  0  0  0  0
   11.3314    1.7778   57.4163 C   0  0  0  0  0  0  0  0  0  0  0  0
   11.6149    2.6468   56.4372 F   0  0  0  0  0  0  0  0  0  0  0  0
 15 17  2  0  0  0
 15 19  1  0  0  0
 16 18  1  0  0  0
 16 19  2  0  0  0
 27 29  2  0  0  0
 27 31  1  0  0  0
 28 30  1  0  0  0
 28 31  2  0  0  0
 17 20  1  0  0  0
 18 20  2  0  0  0
 29 32  1  0  0  0
 30 32  2  0  0  0
 19 14  1  0  0  0
 31 26  1  0  0  0
 20 21  1  0  0  0
 32 33  1  0  0  0
  1  2  1  0  0  0
  1  3  1  0  0  0
  1  4  2  0  0  0
  6  8  1  0  0  0
  6 10  1  0  0  0
  7  9  1  0  0  0
  7 10  1  0  0  0
  8 12  1  0  0  0
  9 12  1  0  0  0
 10  3  1  0  0  0
 23 25  1  0  0  0
 24 25  1  0  0  0
 11 12  1  0  0  0
 14  2  1  0  0  0
 26  3  1  0  0  0
 22 25  1  0  0  0
 22 21  1  0  0  0
  2  5  1  0  0  0
 12 13  1  0  0  0
M  CHG 1  12   1
M  END
> <minimizedAffinity>
-8.94300

> <CNNscore>
0.2852551937

> <CNNaffinity>
6.5521812439

> <CNN_VS>
1.8690437078

> <CNNaffinity_variance>
0.1569821835

$$$$



 33 35  0  0  0  0  0  0  0  0999 V2000
    9.7488   -1.7807   60.1248 C   0  0  0  0  0  0  0  0  0  0  0  0
    8.9848   -2.4734   59.1897 N   0  0  0  0  0  0  0  0  0  0  0  0
   10.0773   -0.4545   59.7690 N   0  0  0  0  0  0  0  0  0  0  0  0
   10.1013   -2.2927   61.1917 O   0  0  0  0  0  0  0  0  0  0  0  0
    8.7225   -2.0062   58.3299 H   0  0  0  0  0  0  0  0  0  0  0  0
   11.8187   -0.4302   61.4889 C   0  0  0  0  0  0  0  0  0  0  0  0
    9.9402    1.2556   61.5148 C   0  0  0  0  0  0  0  0  0  0  0  0
   12.6014    0.4384   62.4634 C   0  0  0  0  0  0  0  0  0  0  0  0
   10.7342    2.1137   62.4896 C   0  0  0  0  0  0  0  0  0  0  0  0
   10.8541    0.3978   60.6372 C   0  0  0  0  0  0  0  0  0  0  0  0
   10.9828    0.4826   64.3991 C   0  0  0  0  0  0  0  0  0  0  0  0
   11.6712    1.2667   63.3147 N   0  0  0  0  0  0  0  0  0  0  0  0
   12.2959    1.9551   63.8275 H   0  0  0  0  0  0  0  0  0  0  0  0
    8.5528   -3.8362   59.4028 C   0  0  0  0  0  0  0  0  0  0  0  0
    6.0832   -4.1252   59.7391 C   0  0  0  0  0  0  0  0  0  0  0  0
    7.4863   -3.7635   61.6725 C   0  0  0  0  0  0  0  0  0  0  0  0
    4.9618   -4.1934   60.5658 C   0  0  0  0  0  0  0  0  0  0  0  0
    6.3649   -3.8316   62.4991 C   0  0  0  0  0  0  0  0  0  0  0  0
    7.3456   -3.9103   60.2925 C   0  0  0  0  0  0  0  0  0  0  0  0
    5.1027   -4.0466   61.9457 C   0  0  0  0  0  0  0  0  0  0  0  0
    4.0081   -4.1120   62.7521 O   0  0  0  0  0  0  0  0  0  0  0  0
    4.2138   -3.8847   64.1455 C   0  0  0  0  0  0  0  0  0  0  0  0
    4.3322   -1.3761   64.4378 C   0  0  0  0  0  0  0  0  0  0  0  0
    2.1699   -2.4701   63.7855 C   0  0  0  0  0  0  0  0  0  0  0  0
    3.4615   -2.6257   64.5854 C   0  0  0  0  0  0  0  0  0  0  0  0
    9.6491    0.1342   58.4976 C   0  0  0  0  0  0  0  0  0  0  0  0
   11.8273    0.8381   57.4700 C   0  0  0  0  0  0  0  0  0  0  0  0
   10.5628   -0.9321   56.4190 C   0  0  0  0  0  0  0  0  0  0  0  0
   12.8076    0.7230   56.4843 C   0  0  0  0  0  0  0  0  0  0  0  0
   11.5430   -1.0471   55.4333 C   0  0  0  0  0  0  0  0  0  0  0  0
   10.7049    0.0104   57.4373 C   0  0  0  0  0  0  0  0  0  0  0  0
   12.6654   -0.2195   55.4659 C   0  0  0  0  0  0  0  0  0  0  0  0
   13.6053   -0.3281   54.5178 F   0  0  0  0  0  0  0  0  0  0  0  0
 15 17  2  0  0  0
 15 19  1  0  0  0
 16 18  1  0  0  0
 16 19  2  0  0  0
 27 29  2  0  0  0
 27 31  1  0  0  0
 28 30  1  0  0  0
 28 31  2  0  0  0
 17 20  1  0  0  0
 18 20  2  0  0  0
 29 32  1  0  0  0
 30 32  2  0  0  0
 19 14  1  0  0  0
 31 26  1  0  0  0
 20 21  1  0  0  0
 32 33  1  0  0  0
  1  2  1  0  0  0
  1  3  1  0  0  0
  1  4  2  0  0  0
  6  8  1  0  0  0
  6 10  1  0  0  0
  7  9  1  0  0  0
  7 10  1  0  0  0
  8 12  1  0  0  0
  9 12  1  0  0  0
 10  3  1  0  0  0
 23 25  1  0  0  0
 24 25  1  0  0  0
 11 12  1  0  0  0
 14  2  1  0  0  0
 26  3  1  0  0  0
 22 25  1  0  0  0
 22 21  1  0  0  0
  2  5  1  0  0  0
 12 13  1  0  0  0
M  CHG 1  12   1
M  END
> <minimizedAffinity>
-7.29030

> <CNNscore>
0.2807377279

> <CNNaffinity>
6.3766822815

> <CNN_VS>
1.7901753187

> <CNNaffinity_variance>
0.0329084173

$$$$



 33 35  0  0  0  0  0  0  0  0999 V2000
   13.3470   -0.0329   61.3956 C   0  0  0  0  0  0  0  0  0  0  0  0
   13.9486    0.5857   60.3031 N   0  0  0  0  0  0  0  0  0  0  0  0
   11.9771    0.2593   61.5726 N   0  0  0  0  0  0  0  0  0  0  0  0
   13.9707   -0.7900   62.1455 O   0  0  0  0  0  0  0  0  0  0  0  0
   13.3911    1.1980   59.7196 H   0  0  0  0  0  0  0  0  0  0  0  0
    9.7858   -0.6382   62.1922 C   0  0  0  0  0  0  0  0  0  0  0  0
   11.1969    0.6203   63.8644 C   0  0  0  0  0  0  0  0  0  0  0  0
    8.9329   -1.1794   63.3308 C   0  0  0  0  0  0  0  0  0  0  0  0
   10.3350    0.0717   64.9928 C   0  0  0  0  0  0  0  0  0  0  0  0
   11.2086   -0.3132   62.6521 C   0  0  0  0  0  0  0  0  0  0  0  0
    8.0868    0.9891   64.3055 C   0  0  0  0  0  0  0  0  0  0  0  0
    8.9400   -0.2341   64.5065 N   0  0  0  0  0  0  0  0  0  0  0  0
    8.4754   -0.7661   65.2991 H   0  0  0  0  0  0  0  0  0  0  0  0
   15.3413    0.3847   59.9725 C   0  0  0  0  0  0  0  0  0  0  0  0
   14.8446   -0.7383   57.7845 C   0  0  0  0  0  0  0  0  0  0  0  0
   16.4542    1.0629   57.8288 C   0  0  0  0  0  0  0  0  0  0  0  0
   15.0404   -0.8794   56.4107 C   0  0  0  0  0  0  0  0  0  0  0  0
   16.6500    0.9218   56.4551 C   0  0  0  0  0  0  0  0  0  0  0  0
   15.5515    0.2330   58.4936 C   0  0  0  0  0  0  0  0  0  0  0  0
   15.9430   -0.0494   55.7460 C   0  0  0  0  0  0  0  0  0  0  0  0
   16.1349   -0.1881   54.4057 O   0  0  0  0  0  0  0  0  0  0  0  0
   15.7922    0.9254   53.5821 C   0  0  0  0  0  0  0  0  0  0  0  0
   13.8998    2.4578   52.9015 C   0  0  0  0  0  0  0  0  0  0  0  0
   13.5171   -0.0156   53.0854 C   0  0  0  0  0  0  0  0  0  0  0  0
   14.2836    1.1789   53.6490 C   0  0  0  0  0  0  0  0  0  0  0  0
   11.2554    1.1609   60.6711 C   0  0  0  0  0  0  0  0  0  0  0  0
   10.7309   -0.6089   58.9715 C   0  0  0  0  0  0  0  0  0  0  0  0
   11.7597    1.4478   58.2306 C   0  0  0  0  0  0  0  0  0  0  0  0
   10.7250   -1.0790   57.6582 C   0  0  0  0  0  0  0  0  0  0  0  0
   11.7539    0.9776   56.9174 C   0  0  0  0  0  0  0  0  0  0  0  0
   11.2481    0.6545   59.2576 C   0  0  0  0  0  0  0  0  0  0  0  0
   11.2366   -0.2858   56.6312 C   0  0  0  0  0  0  0  0  0  0  0  0
   11.2336   -0.7383   55.3704 F   0  0  0  0  0  0  0  0  0  0  0  0
 15 17  2  0  0  0
 15 19  1  0  0  0
 16 18  1  0  0  0
 16 19  2  0  0  0
 27 29  2  0  0  0
 27 31  1  0  0  0
 28 30  1  0  0  0
 28 31  2  0  0  0
 17 20  1  0  0  0
 18 20  2  0  0  0
 29 32  1  0  0  0
 30 32  2  0  0  0
 19 14  1  0  0  0
 31 26  1  0  0  0
 20 21  1  0  0  0
 32 33  1  0  0  0
  1  2  1  0  0  0
  1  3  1  0  0  0
  1  4  2  0  0  0
  6  8  1  0  0  0
  6 10  1  0  0  0
  7  9  1  0  0  0
  7 10  1  0  0  0
  8 12  1  0  0  0
  9 12  1  0  0  0
 10  3  1  0  0  0
 23 25  1  0  0  0
 24 25  1  0  0  0
 11 12  1  0  0  0
 14  2  1  0  0  0
 26  3  1  0  0  0
 22 25  1  0  0  0
 22 21  1  0  0  0
  2  5  1  0  0  0
 12 13  1  0  0  0
M  CHG 1  12   1
M  END
> <minimizedAffinity>
-9.42331

> <CNNscore>
0.2374150604

> <CNNaffinity>
6.4982810020

> <CNN_VS>
1.5427898169

> <CNNaffinity_variance>
0.5804623961

$$$$



 33 35  0  0  0  0  0  0  0  0999 V2000
   11.9631   -0.2428   60.9054 C   0  0  0  0  0  0  0  0  0  0  0  0
   13.0515    0.4488   60.3809 N   0  0  0  0  0  0  0  0  0  0  0  0
   10.7229    0.0314   60.2890 N   0  0  0  0  0  0  0  0  0  0  0  0
   12.0833   -1.0451   61.8363 O   0  0  0  0  0  0  0  0  0  0  0  0
   12.8975    1.0959   59.6169 H   0  0  0  0  0  0  0  0  0  0  0  0
    9.4984   -0.8300   62.2254 C   0  0  0  0  0  0  0  0  0  0  0  0
    9.3018   -1.9349   59.9645 C   0  0  0  0  0  0  0  0  0  0  0  0
    8.2524   -1.5718   62.6878 C   0  0  0  0  0  0  0  0  0  0  0  0
    8.0571   -2.6705   60.4409 C   0  0  0  0  0  0  0  0  0  0  0  0
    9.5026   -0.6142   60.7106 C   0  0  0  0  0  0  0  0  0  0  0  0
    9.0297   -3.9535   62.3843 C   0  0  0  0  0  0  0  0  0  0  0  0
    8.0870   -2.8694   61.9361 N   0  0  0  0  0  0  0  0  0  0  0  0
    7.1195   -3.2230   62.1929 H   0  0  0  0  0  0  0  0  0  0  0  0
   14.3937    0.2758   60.8888 C   0  0  0  0  0  0  0  0  0  0  0  0
   16.1199   -0.8942   59.4938 C   0  0  0  0  0  0  0  0  0  0  0  0
   15.6590    1.4375   59.0604 C   0  0  0  0  0  0  0  0  0  0  0  0
   17.0690   -0.8965   58.4716 C   0  0  0  0  0  0  0  0  0  0  0  0
   16.6080    1.4352   58.0382 C   0  0  0  0  0  0  0  0  0  0  0  0
   15.4148    0.2729   59.7881 C   0  0  0  0  0  0  0  0  0  0  0  0
   17.3130    0.2681   57.7438 C   0  0  0  0  0  0  0  0  0  0  0  0
   18.2400    0.2660   56.7472 O   0  0  0  0  0  0  0  0  0  0  0  0
   18.9929   -0.9320   56.5633 C   0  0  0  0  0  0  0  0  0  0  0  0
   21.0785   -2.0096   57.5021 C   0  0  0  0  0  0  0  0  0  0  0  0
   21.2635   -0.1219   55.8588 C   0  0  0  0  0  0  0  0  0  0  0  0
   20.4423   -0.7101   57.0042 C   0  0  0  0  0  0  0  0  0  0  0  0
   10.6019    0.9873   59.1854 C   0  0  0  0  0  0  0  0  0  0  0  0
   10.4595   -0.5563   57.2124 C   0  0  0  0  0  0  0  0  0  0  0  0
   12.3635    0.9188   57.4009 C   0  0  0  0  0  0  0  0  0  0  0  0
   10.9736   -1.0677   56.0208 C   0  0  0  0  0  0  0  0  0  0  0  0
   12.8777    0.4074   56.2094 C   0  0  0  0  0  0  0  0  0  0  0  0
   11.1544    0.4370   57.9024 C   0  0  0  0  0  0  0  0  0  0  0  0
   12.1828   -0.5859   55.5194 C   0  0  0  0  0  0  0  0  0  0  0  0
   12.6780   -1.0788   54.3765 F   0  0  0  0  0  0  0  0  0  0  0  0
 15 17  2  0  0  0
 15 19  1  0  0  0
 16 18  1  0  0  0
 16 19  2  0  0  0
 27 29  2  0  0  0
 27 31  1  0  0  0
 28 30  1  0  0  0
 28 31  2  0  0  0
 17 20  1  0  0  0
 18 20  2  0  0  0
 29 32  1  0  0  0
 30 32  2  0  0  0
 19 14  1  0  0  0
 31 26  1  0  0  0
 20 21  1  0  0  0
 32 33  1  0  0  0
  1  2  1  0  0  0
  1  3  1  0  0  0
  1  4  2  0  0  0
  6  8  1  0  0  0
  6 10  1  0  0  0
  7  9  1  0  0  0
  7 10  1  0  0  0
  8 12  1  0  0  0
  9 12  1  0  0  0
 10  3  1  0  0  0
 23 25  1  0  0  0
 24 25  1  0  0  0
 11 12  1  0  0  0
 14  2  1  0  0  0
 26  3  1  0  0  0
 22 25  1  0  0  0
 22 21  1  0  0  0
  2  5  1  0  0  0
 12 13  1  0  0  0
M  CHG 1  12   1
M  END
> <minimizedAffinity>
-8.05089

> <CNNscore>
0.2339411527

> <CNNaffinity>
6.3656010628

> <CNN_VS>
1.4891760349

> <CNNaffinity_variance>
0.1142393351

$$$$



 33 35  0  0  0  0  0  0  0  0999 V2000
   13.0307    0.0779   60.1475 C   0  0  0  0  0  0  0  0  0  0  0  0
   11.7285   -0.0393   60.6255 N   0  0  0  0  0  0  0  0  0  0  0  0
   13.1449    0.2550   58.7515 N   0  0  0  0  0  0  0  0  0  0  0  0
   14.0103    0.0393   60.8981 O   0  0  0  0  0  0  0  0  0  0  0  0
   10.9603   -0.0010   59.9663 H   0  0  0  0  0  0  0  0  0  0  0  0
   15.0173   -0.9623   57.7500 C   0  0  0  0  0  0  0  0  0  0  0  0
   15.3869    1.2101   58.9809 C   0  0  0  0  0  0  0  0  0  0  0  0
   16.4009   -0.8365   57.1281 C   0  0  0  0  0  0  0  0  0  0  0  0
   16.7685    1.3225   58.3519 C   0  0  0  0  0  0  0  0  0  0  0  0
   14.4264    0.4040   58.1040 C   0  0  0  0  0  0  0  0  0  0  0  0
   17.8134   -0.8046   59.2192 C   0  0  0  0  0  0  0  0  0  0  0  0
   17.3224   -0.0408   58.0191 N   0  0  0  0  0  0  0  0  0  0  0  0
   18.1903    0.1422   57.4358 H   0  0  0  0  0  0  0  0  0  0  0  0
   11.4344   -0.2138   62.0300 C   0  0  0  0  0  0  0  0  0  0  0  0
    9.5730   -1.0512   63.4890 C   0  0  0  0  0  0  0  0  0  0  0  0
    9.7055   -1.8349   61.2074 C   0  0  0  0  0  0  0  0  0  0  0  0
    8.4345   -1.8313   63.6908 C   0  0  0  0  0  0  0  0  0  0  0  0
    8.5669   -2.6150   61.4092 C   0  0  0  0  0  0  0  0  0  0  0  0
   10.2085   -1.0530   62.2473 C   0  0  0  0  0  0  0  0  0  0  0  0
    7.9315   -2.6132   62.6510 C   0  0  0  0  0  0  0  0  0  0  0  0
    6.8212   -3.3753   62.8485 O   0  0  0  0  0  0  0  0  0  0  0  0
    5.8054   -2.8362   63.6931 C   0  0  0  0  0  0  0  0  0  0  0  0
    5.1141   -5.2635   63.5427 C   0  0  0  0  0  0  0  0  0  0  0  0
    4.0149   -3.7388   65.2055 C   0  0  0  0  0  0  0  0  0  0  0  0
    4.6493   -3.8322   63.8196 C   0  0  0  0  0  0  0  0  0  0  0  0
   11.9693    0.2979   57.8781 C   0  0  0  0  0  0  0  0  0  0  0  0
   11.9222   -1.0998   55.7948 C   0  0  0  0  0  0  0  0  0  0  0  0
   13.0742    1.0234   55.7461 C   0  0  0  0  0  0  0  0  0  0  0  0
   12.2582   -1.3127   54.4578 C   0  0  0  0  0  0  0  0  0  0  0  0
   13.4103    0.8104   54.4092 C   0  0  0  0  0  0  0  0  0  0  0  0
   12.3301    0.0684   56.4389 C   0  0  0  0  0  0  0  0  0  0  0  0
   13.0024   -0.3577   53.7651 C   0  0  0  0  0  0  0  0  0  0  0  0
   13.3275   -0.5634   52.4820 F   0  0  0  0  0  0  0  0  0  0  0  0
 15 17  2  0  0  0
 15 19  1  0  0  0
 16 18  1  0  0  0
 16 19  2  0  0  0
 27 29  2  0  0  0
 27 31  1  0  0  0
 28 30  1  0  0  0
 28 31  2  0  0  0
 17 20  1  0  0  0
 18 20  2  0  0  0
 29 32  1  0  0  0
 30 32  2  0  0  0
 19 14  1  0  0  0
 31 26  1  0  0  0
 20 21  1  0  0  0
 32 33  1  0  0  0
  1  2  1  0  0  0
  1  3  1  0  0  0
  1  4  2  0  0  0
  6  8  1  0  0  0
  6 10  1  0  0  0
  7  9  1  0  0  0
  7 10  1  0  0  0
  8 12  1  0  0  0
  9 12  1  0  0  0
 10  3  1  0  0  0
 23 25  1  0  0  0
 24 25  1  0  0  0
 11 12  1  0  0  0
 14  2  1  0  0  0
 26  3  1  0  0  0
 22 25  1  0  0  0
 22 21  1  0  0  0
  2  5  1  0  0  0
 12 13  1  0  0  0
M  CHG 1  12   1
M  END
> <minimizedAffinity>
-8.35141

> <CNNscore>
0.2253176123

> <CNNaffinity>
6.3159470558

> <CNN_VS>
1.4230941534

> <CNNaffinity_variance>
0.0957143605

$$$$



 33 35  0  0  0  0  0  0  0  0999 V2000
    6.7289   -3.8035   61.5917 C   0  0  0  0  0  0  0  0  0  0  0  0
    8.1156   -3.7082   61.5153 N   0  0  0  0  0  0  0  0  0  0  0  0
    6.2029   -3.8820   62.8996 N   0  0  0  0  0  0  0  0  0  0  0  0
    6.0157   -3.8080   60.5837 O   0  0  0  0  0  0  0  0  0  0  0  0
    8.6539   -3.7090   62.3735 H   0  0  0  0  0  0  0  0  0  0  0  0
    4.4465   -3.4903   64.5587 C   0  0  0  0  0  0  0  0  0  0  0  0
    4.2841   -5.4016   62.9180 C   0  0  0  0  0  0  0  0  0  0  0  0
    2.9641   -3.6412   64.8695 C   0  0  0  0  0  0  0  0  0  0  0  0
    2.8027   -5.5412   63.2392 C   0  0  0  0  0  0  0  0  0  0  0  0
    4.7836   -3.9734   63.1465 C   0  0  0  0  0  0  0  0  0  0  0  0
    2.9394   -6.0195   65.7133 C   0  0  0  0  0  0  0  0  0  0  0  0
    2.5062   -5.0600   64.6380 N   0  0  0  0  0  0  0  0  0  0  0  0
    1.4472   -5.0295   64.7071 H   0  0  0  0  0  0  0  0  0  0  0  0
    8.8142   -3.6081   60.2538 C   0  0  0  0  0  0  0  0  0  0  0  0
    8.8130   -1.7932   58.5214 C   0  0  0  0  0  0  0  0  0  0  0  0
    9.4525   -1.2407   60.7848 C   0  0  0  0  0  0  0  0  0  0  0  0
    9.0155   -0.4668   58.1404 C   0  0  0  0  0  0  0  0  0  0  0  0
    9.6550    0.0857   60.4039 C   0  0  0  0  0  0  0  0  0  0  0  0
    9.0315   -2.1802   59.8436 C   0  0  0  0  0  0  0  0  0  0  0  0
    9.4365    0.4726   59.0816 C   0  0  0  0  0  0  0  0  0  0  0  0
    9.6352    1.7667   58.7094 O   0  0  0  0  0  0  0  0  0  0  0  0
   10.7811    2.0423   57.9052 C   0  0  0  0  0  0  0  0  0  0  0  0
   11.3252    3.3385   60.0066 C   0  0  0  0  0  0  0  0  0  0  0  0
   12.8868    1.5544   59.1843 C   0  0  0  0  0  0  0  0  0  0  0  0
   11.8945    2.6389   58.7706 C   0  0  0  0  0  0  0  0  0  0  0  0
    7.0669   -3.8753   64.0828 C   0  0  0  0  0  0  0  0  0  0  0  0
    9.0612   -2.3662   64.2867 C   0  0  0  0  0  0  0  0  0  0  0  0
    6.8557   -1.4281   64.5922 C   0  0  0  0  0  0  0  0  0  0  0  0
    9.6264   -1.1113   64.5134 C   0  0  0  0  0  0  0  0  0  0  0  0
    7.4210   -0.1732   64.8190 C   0  0  0  0  0  0  0  0  0  0  0  0
    7.6758   -2.5246   64.3260 C   0  0  0  0  0  0  0  0  0  0  0  0
    8.8062   -0.0148   64.7796 C   0  0  0  0  0  0  0  0  0  0  0  0
    9.3491    1.1897   65.0001 F   0  0  0  0  0  0  0  0  0  0  0  0
 15 17  2  0  0  0
 15 19  1  0  0  0
 16 18  1  0  0  0
 16 19  2  0  0  0
 27 29  2  0  0  0
 27 31  1  0  0  0
 28 30  1  0  0  0
 28 31  2  0  0  0
 17 20  1  0  0  0
 18 20  2  0  0  0
 29 32  1  0  0  0
 30 32  2  0  0  0
 19 14  1  0  0  0
 31 26  1  0  0  0
 20 21  1  0  0  0
 32 33  1  0  0  0
  1  2  1  0  0  0
  1  3  1  0  0  0
  1  4  2  0  0  0
  6  8  1  0  0  0
  6 10  1  0  0  0
  7  9  1  0  0  0
  7 10  1  0  0  0
  8 12  1  0  0  0
  9 12  1  0  0  0
 10  3  1  0  0  0
 23 25  1  0  0  0
 24 25  1  0  0  0
 11 12  1  0  0  0
 14  2  1  0  0  0
 26  3  1  0  0  0
 22 25  1  0  0  0
 22 21  1  0  0  0
  2  5  1  0  0  0
 12 13  1  0  0  0
M  CHG 1  12   1
M  END
> <minimizedAffinity>
-7.60582

> <CNNscore>
0.2236650586

> <CNNaffinity>
6.1648411751

> <CNN_VS>
1.3788595200

> <CNNaffinity_variance>
0.1185446531

$$$$



 29 31  0  0  0  0  0  0  0  0999 V2000
   13.0779   -0.3494   61.6111 C   0  0  0  0  0  0  0  0  0  0  0  0
   12.8250    0.9184   59.4492 C   0  0  0  0  0  0  0  0  0  0  0  0
   14.4776   -0.7758   61.1898 C   0  0  0  0  0  0  0  0  0  0  0  0
   14.2259    0.4854   59.0389 C   0  0  0  0  0  0  0  0  0  0  0  0
   12.1735   -0.0924   60.4001 C   0  0  0  0  0  0  0  0  0  0  0  0
   15.0666    0.2693   60.2737 N   0  0  0  0  0  0  0  0  0  0  0  0
   15.0817    1.1580   60.7929 H   0  0  0  0  0  0  0  0  0  0  0  0
   10.7959    0.3927   60.8460 C   0  0  0  0  0  0  0  0  0  0  0  0
   10.0522    0.7731   59.6919 O   0  0  0  0  0  0  0  0  0  0  0  0
    9.2002    1.1100   60.0103 H   0  0  0  0  0  0  0  0  0  0  0  0
    9.0484   -2.8833   61.6116 C   0  0  0  0  0  0  0  0  0  0  0  0
    9.7594   -1.8854   60.9452 C   0  0  0  0  0  0  0  0  0  0  0  0
    8.6029   -2.6695   62.9162 C   0  0  0  0  0  0  0  0  0  0  0  0
   10.0253   -0.6739   61.5831 C   0  0  0  0  0  0  0  0  0  0  0  0
    8.8688   -1.4579   63.5542 C   0  0  0  0  0  0  0  0  0  0  0  0
    9.5800   -0.4601   62.8877 C   0  0  0  0  0  0  0  0  0  0  0  0
    9.0943   -1.9839   65.8625 C   0  0  0  0  0  0  0  0  0  0  0  0
    8.4279   -1.2625   64.8283 O   0  0  0  0  0  0  0  0  0  0  0  0
   11.0082    0.7830   64.3266 C   0  0  0  0  0  0  0  0  0  0  0  0
    9.8377    0.7229   63.5152 O   0  0  0  0  0  0  0  0  0  0  0  0
   16.4960   -0.0417   59.9241 C   0  0  0  0  0  0  0  0  0  0  0  0
   16.6934   -0.0039   58.4121 C   0  0  0  0  0  0  0  0  0  0  0  0
   18.5481   -0.0348   56.7224 C   0  0  0  0  0  0  0  0  0  0  0  0
   18.8469   -1.2301   58.8007 C   0  0  0  0  0  0  0  0  0  0  0  0
   19.8193   -0.4342   56.3099 C   0  0  0  0  0  0  0  0  0  0  0  0
   20.1182   -1.6295   58.3881 C   0  0  0  0  0  0  0  0  0  0  0  0
   18.0619   -0.4328   57.9678 C   0  0  0  0  0  0  0  0  0  0  0  0
   20.6043   -1.2315   57.1427 C   0  0  0  0  0  0  0  0  0  0  0  0
   21.8241   -1.6173   56.7455 F   0  0  0  0  0  0  0  0  0  0  0  0
 11 12  1  0  0  0
 11 13  2  0  0  0
 12 14  2  0  0  0
 23 25  2  0  0  0
 23 27  1  0  0  0
 24 26  1  0  0  0
 24 27  2  0  0  0
 13 15  1  0  0  0
 25 28  1  0  0  0
 26 28  2  0  0  0
 27 22  1  0  0  0
 14 16  1  0  0  0
 14  8  1  0  0  0
 15 16  2  0  0  0
 15 18  1  0  0  0
 16 20  1  0  0  0
 28 29  1  0  0  0
  1  3  1  0  0  0
  1  5  1  0  0  0
  2  4  1  0  0  0
  2  5  1  0  0  0
  3  6  1  0  0  0
  4  6  1  0  0  0
  5  8  1  0  0  0
 17 18  1  0  0  0
 19 20  1  0  0  0
 22 21  1  0  0  0
 21  6  1  0  0  0
  8  9  1  0  0  0
  6  7  1  0  0  0
  9 10  1  0  0  0
M  CHG 1   6   1
M  END
> <minimizedAffinity>
-9.60581

> <CNNscore>
0.8061547279

> <CNNaffinity>
6.6303863525

> <CNN_VS>
5.3451170921

> <CNNaffinity_variance>
0.0087369587

$$$$



 29 31  0  0  0  0  0  0  0  0999 V2000
   13.0814   -0.2634   61.5975 C   0  0  0  0  0  0  0  0  0  0  0  0
   12.8206    0.9068   59.3821 C   0  0  0  0  0  0  0  0  0  0  0  0
   14.4831   -0.7005   61.1942 C   0  0  0  0  0  0  0  0  0  0  0  0
   14.2235    0.4635   58.9902 C   0  0  0  0  0  0  0  0  0  0  0  0
   12.1749   -0.0647   60.3771 C   0  0  0  0  0  0  0  0  0  0  0  0
   15.0661    0.3063   60.2327 N   0  0  0  0  0  0  0  0  0  0  0  0
   15.0768    1.2170   60.7123 H   0  0  0  0  0  0  0  0  0  0  0  0
   10.7950    0.4324   60.8023 C   0  0  0  0  0  0  0  0  0  0  0  0
   10.0553    0.7753   59.6339 O   0  0  0  0  0  0  0  0  0  0  0  0
    9.2017    1.1208   59.9383 H   0  0  0  0  0  0  0  0  0  0  0  0
    9.0598   -2.8249   61.6688 C   0  0  0  0  0  0  0  0  0  0  0  0
    9.7720   -1.8475   60.9739 C   0  0  0  0  0  0  0  0  0  0  0  0
    8.5984   -2.5664   62.9596 C   0  0  0  0  0  0  0  0  0  0  0  0
   10.0230   -0.6116   61.5697 C   0  0  0  0  0  0  0  0  0  0  0  0
    8.8493   -1.3304   63.5554 C   0  0  0  0  0  0  0  0  0  0  0  0
    9.5616   -0.3529   62.8604 C   0  0  0  0  0  0  0  0  0  0  0  0
    7.0555   -1.4913   65.1084 C   0  0  0  0  0  0  0  0  0  0  0  0
    8.3929   -1.0912   64.8165 O   0  0  0  0  0  0  0  0  0  0  0  0
   10.9112    0.9267   64.3426 C   0  0  0  0  0  0  0  0  0  0  0  0
    9.8047    0.8541   63.4468 O   0  0  0  0  0  0  0  0  0  0  0  0
   16.4968   -0.0122   59.8960 C   0  0  0  0  0  0  0  0  0  0  0  0
   16.6956   -0.0294   58.3838 C   0  0  0  0  0  0  0  0  0  0  0  0
   18.8547   -1.2356   58.8075 C   0  0  0  0  0  0  0  0  0  0  0  0
   18.5637   -0.0718   56.7103 C   0  0  0  0  0  0  0  0  0  0  0  0
   20.1321   -1.6310   58.4107 C   0  0  0  0  0  0  0  0  0  0  0  0
   19.8412   -0.4672   56.3136 C   0  0  0  0  0  0  0  0  0  0  0  0
   18.0705   -0.4560   57.9572 C   0  0  0  0  0  0  0  0  0  0  0  0
   20.6254   -1.2469   57.1639 C   0  0  0  0  0  0  0  0  0  0  0  0
   21.8533   -1.6243   56.7840 F   0  0  0  0  0  0  0  0  0  0  0  0
 11 12  1  0  0  0
 11 13  2  0  0  0
 12 14  2  0  0  0
 23 25  2  0  0  0
 23 27  1  0  0  0
 24 26  1  0  0  0
 24 27  2  0  0  0
 13 15  1  0  0  0
 25 28  1  0  0  0
 26 28  2  0  0  0
 27 22  1  0  0  0
 14 16  1  0  0  0
 14  8  1  0  0  0
 15 16  2  0  0  0
 15 18  1  0  0  0
 16 20  1  0  0  0
 28 29  1  0  0  0
  1  3  1  0  0  0
  1  5  1  0  0  0
  2  4  1  0  0  0
  2  5  1  0  0  0
  3  6  1  0  0  0
  4  6  1  0  0  0
  5  8  1  0  0  0
 17 18  1  0  0  0
 19 20  1  0  0  0
 22 21  1  0  0  0
 21  6  1  0  0  0
  8  9  1  0  0  0
  6  7  1  0  0  0
  9 10  1  0  0  0
M  CHG 1   6   1
M  END
> <minimizedAffinity>
-9.60223

> <CNNscore>
0.7999756336

> <CNNaffinity>
6.6029839516

> <CNN_VS>
5.2822260857

> <CNNaffinity_variance>
0.0264763050

$$$$



 29 31  0  0  0  0  0  0  0  0999 V2000
   13.1866   -0.1008   61.8382 C   0  0  0  0  0  0  0  0  0  0  0  0
   12.7468    0.4860   59.4283 C   0  0  0  0  0  0  0  0  0  0  0  0
   14.5721   -0.6038   61.4561 C   0  0  0  0  0  0  0  0  0  0  0  0
   14.1343   -0.0202   59.0586 C   0  0  0  0  0  0  0  0  0  0  0  0
   12.1973   -0.2205   60.6731 C   0  0  0  0  0  0  0  0  0  0  0  0
   15.0601    0.1443   60.2393 N   0  0  0  0  0  0  0  0  0  0  0  0
   15.0738    1.1449   60.4804 H   0  0  0  0  0  0  0  0  0  0  0  0
   10.8332    0.3463   61.0603 C   0  0  0  0  0  0  0  0  0  0  0  0
   10.0801    0.5710   59.8719 O   0  0  0  0  0  0  0  0  0  0  0  0
    9.2377    0.9641   60.1483 H   0  0  0  0  0  0  0  0  0  0  0  0
    9.2019   -1.1419   64.1420 C   0  0  0  0  0  0  0  0  0  0  0  0
    9.9171   -0.2863   63.3041 C   0  0  0  0  0  0  0  0  0  0  0  0
    8.6262   -2.3030   63.6259 C   0  0  0  0  0  0  0  0  0  0  0  0
   10.0564   -0.5915   61.9503 C   0  0  0  0  0  0  0  0  0  0  0  0
    8.7655   -2.6083   62.2720 C   0  0  0  0  0  0  0  0  0  0  0  0
    9.4807   -1.7525   61.4342 C   0  0  0  0  0  0  0  0  0  0  0  0
    6.8123   -3.9469   62.0513 C   0  0  0  0  0  0  0  0  0  0  0  0
    8.1981   -3.7454   61.7813 O   0  0  0  0  0  0  0  0  0  0  0  0
    8.4405   -1.9711   59.3068 C   0  0  0  0  0  0  0  0  0  0  0  0
    9.6144   -2.0548   60.1111 O   0  0  0  0  0  0  0  0  0  0  0  0
   16.4752   -0.2271   59.8907 C   0  0  0  0  0  0  0  0  0  0  0  0
   16.6752   -0.1971   58.3788 C   0  0  0  0  0  0  0  0  0  0  0  0
   18.5475   -0.0892   56.7119 C   0  0  0  0  0  0  0  0  0  0  0  0
   18.8932   -1.3001   58.7738 C   0  0  0  0  0  0  0  0  0  0  0  0
   19.8448   -0.4054   56.3087 C   0  0  0  0  0  0  0  0  0  0  0  0
   20.1905   -1.6164   58.3705 C   0  0  0  0  0  0  0  0  0  0  0  0
   18.0717   -0.5365   57.9445 C   0  0  0  0  0  0  0  0  0  0  0  0
   20.6663   -1.1690   57.1379 C   0  0  0  0  0  0  0  0  0  0  0  0
   21.9112   -1.4751   56.7495 F   0  0  0  0  0  0  0  0  0  0  0  0
 11 12  1  0  0  0
 11 13  2  0  0  0
 12 14  2  0  0  0
 23 25  2  0  0  0
 23 27  1  0  0  0
 24 26  1  0  0  0
 24 27  2  0  0  0
 13 15  1  0  0  0
 25 28  1  0  0  0
 26 28  2  0  0  0
 27 22  1  0  0  0
 14 16  1  0  0  0
 14  8  1  0  0  0
 15 16  2  0  0  0
 15 18  1  0  0  0
 16 20  1  0  0  0
 28 29  1  0  0  0
  1  3  1  0  0  0
  1  5  1  0  0  0
  2  4  1  0  0  0
  2  5  1  0  0  0
  3  6  1  0  0  0
  4  6  1  0  0  0
  5  8  1  0  0  0
 17 18  1  0  0  0
 19 20  1  0  0  0
 22 21  1  0  0  0
 21  6  1  0  0  0
  8  9  1  0  0  0
  6  7  1  0  0  0
  9 10  1  0  0  0
M  CHG 1   6   1
M  END
> <minimizedAffinity>
-9.25290

> <CNNscore>
0.7525539398

> <CNNaffinity>
6.4693779945

> <CNN_VS>
4.8685560226

> <CNNaffinity_variance>
0.0375540629

$$$$



 29 31  0  0  0  0  0  0  0  0999 V2000
   12.8409   -0.4560   61.4147 C   0  0  0  0  0  0  0  0  0  0  0  0
   12.6658    1.0353   59.3922 C   0  0  0  0  0  0  0  0  0  0  0  0
   14.2610   -0.8275   61.0098 C   0  0  0  0  0  0  0  0  0  0  0  0
   14.0867    0.6561   58.9977 C   0  0  0  0  0  0  0  0  0  0  0  0
   11.9851   -0.0751   60.2009 C   0  0  0  0  0  0  0  0  0  0  0  0
   14.8774    0.3130   60.2368 N   0  0  0  0  0  0  0  0  0  0  0  0
   14.8623    1.1408   60.8484 H   0  0  0  0  0  0  0  0  0  0  0  0
   10.5856    0.3522   60.6375 C   0  0  0  0  0  0  0  0  0  0  0  0
    9.6303   -0.4584   59.9591 O   0  0  0  0  0  0  0  0  0  0  0  0
    8.7551   -0.1387   60.2283 H   0  0  0  0  0  0  0  0  0  0  0  0
   10.4817    1.1426   64.3438 C   0  0  0  0  0  0  0  0  0  0  0  0
   10.6679    1.2685   62.9672 C   0  0  0  0  0  0  0  0  0  0  0  0
   10.0057   -0.0556   64.8766 C   0  0  0  0  0  0  0  0  0  0  0  0
   10.3779    0.1966   62.1233 C   0  0  0  0  0  0  0  0  0  0  0  0
    9.7158   -1.1276   64.0326 C   0  0  0  0  0  0  0  0  0  0  0  0
    9.9020   -1.0016   62.6559 C   0  0  0  0  0  0  0  0  0  0  0  0
    9.4745   -2.5006   65.9593 C   0  0  0  0  0  0  0  0  0  0  0  0
    9.2516   -2.2920   64.5662 O   0  0  0  0  0  0  0  0  0  0  0  0
    8.2920   -2.5747   61.8884 C   0  0  0  0  0  0  0  0  0  0  0  0
    9.6172   -2.0522   61.8344 O   0  0  0  0  0  0  0  0  0  0  0  0
   16.3230    0.0487   59.9168 C   0  0  0  0  0  0  0  0  0  0  0  0
   16.4853   -0.2995   58.4406 C   0  0  0  0  0  0  0  0  0  0  0  0
   18.3920   -0.0755   56.8250 C   0  0  0  0  0  0  0  0  0  0  0  0
   18.7356   -1.3232   58.8651 C   0  0  0  0  0  0  0  0  0  0  0  0
   19.7104   -0.3299   56.4474 C   0  0  0  0  0  0  0  0  0  0  0  0
   20.0541   -1.5777   58.4875 C   0  0  0  0  0  0  0  0  0  0  0  0
   17.9046   -0.5722   58.0339 C   0  0  0  0  0  0  0  0  0  0  0  0
   20.5415   -1.0810   57.2785 C   0  0  0  0  0  0  0  0  0  0  0  0
   21.8068   -1.3275   56.9147 F   0  0  0  0  0  0  0  0  0  0  0  0
 11 12  1  0  0  0
 11 13  2  0  0  0
 12 14  2  0  0  0
 23 25  2  0  0  0
 23 27  1  0  0  0
 24 26  1  0  0  0
 24 27  2  0  0  0
 13 15  1  0  0  0
 25 28  1  0  0  0
 26 28  2  0  0  0
 27 22  1  0  0  0
 14 16  1  0  0  0
 14  8  1  0  0  0
 15 16  2  0  0  0
 15 18  1  0  0  0
 16 20  1  0  0  0
 28 29  1  0  0  0
  1  3  1  0  0  0
  1  5  1  0  0  0
  2  4  1  0  0  0
  2  5  1  0  0  0
  3  6  1  0  0  0
  4  6  1  0  0  0
  5  8  1  0  0  0
 17 18  1  0  0  0
 19 20  1  0  0  0
 22 21  1  0  0  0
 21  6  1  0  0  0
  8  9  1  0  0  0
  6  7  1  0  0  0
  9 10  1  0  0  0
M  CHG 1   6   1
M  END
> <minimizedAffinity>
-9.56306

> <CNNscore>
0.7303290963

> <CNNaffinity>
6.5509042740

> <CNN_VS>
4.7843160629

> <CNNaffinity_variance>
0.0530169532

$$$$



 29 31  0  0  0  0  0  0  0  0999 V2000
   13.1390   -0.6235   61.2755 C   0  0  0  0  0  0  0  0  0  0  0  0
   12.4619    1.0039   59.4760 C   0  0  0  0  0  0  0  0  0  0  0  0
   14.5412   -0.6831   60.6849 C   0  0  0  0  0  0  0  0  0  0  0  0
   13.8674    0.9358   58.8946 C   0  0  0  0  0  0  0  0  0  0  0  0
   12.0878   -0.2886   60.2109 C   0  0  0  0  0  0  0  0  0  0  0  0
   14.8517    0.6232   59.9954 N   0  0  0  0  0  0  0  0  0  0  0  0
   14.7692    1.3686   60.7004 H   0  0  0  0  0  0  0  0  0  0  0  0
   10.6999   -0.1736   60.8374 C   0  0  0  0  0  0  0  0  0  0  0  0
   10.4102    1.2049   61.0512 O   0  0  0  0  0  0  0  0  0  0  0  0
    9.5421    1.2416   61.4822 H   0  0  0  0  0  0  0  0  0  0  0  0
    8.4868   -0.8085   57.8256 C   0  0  0  0  0  0  0  0  0  0  0  0
    9.4755   -0.2791   58.6548 C   0  0  0  0  0  0  0  0  0  0  0  0
    7.6471   -1.8175   58.2976 C   0  0  0  0  0  0  0  0  0  0  0  0
    9.6248   -0.7587   59.9560 C   0  0  0  0  0  0  0  0  0  0  0  0
    7.7964   -2.2971   59.5990 C   0  0  0  0  0  0  0  0  0  0  0  0
    8.7852   -1.7676   60.4282 C   0  0  0  0  0  0  0  0  0  0  0  0
    6.0960   -3.8803   59.0913 C   0  0  0  0  0  0  0  0  0  0  0  0
    6.9696   -3.2827   60.0471 O   0  0  0  0  0  0  0  0  0  0  0  0
    9.2659   -3.6167   61.8444 C   0  0  0  0  0  0  0  0  0  0  0  0
    8.9277   -2.2394   61.6998 O   0  0  0  0  0  0  0  0  0  0  0  0
   16.2708    0.6646   59.4989 C   0  0  0  0  0  0  0  0  0  0  0  0
   16.4526   -0.2972   58.3291 C   0  0  0  0  0  0  0  0  0  0  0  0
   18.7009   -1.2760   58.8609 C   0  0  0  0  0  0  0  0  0  0  0  0
   18.4095   -0.0964   56.7727 C   0  0  0  0  0  0  0  0  0  0  0  0
   20.0348   -1.5220   58.5358 C   0  0  0  0  0  0  0  0  0  0  0  0
   19.7435   -0.3424   56.4476 C   0  0  0  0  0  0  0  0  0  0  0  0
   17.8883   -0.5631   57.9794 C   0  0  0  0  0  0  0  0  0  0  0  0
   20.5562   -1.0553   57.3291 C   0  0  0  0  0  0  0  0  0  0  0  0
   21.8379   -1.2892   57.0180 F   0  0  0  0  0  0  0  0  0  0  0  0
 11 12  1  0  0  0
 11 13  2  0  0  0
 12 14  2  0  0  0
 23 25  2  0  0  0
 23 27  1  0  0  0
 24 26  1  0  0  0
 24 27  2  0  0  0
 13 15  1  0  0  0
 25 28  1  0  0  0
 26 28  2  0  0  0
 27 22  1  0  0  0
 14 16  1  0  0  0
 14  8  1  0  0  0
 15 16  2  0  0  0
 15 18  1  0  0  0
 16 20  1  0  0  0
 28 29  1  0  0  0
  1  3  1  0  0  0
  1  5  1  0  0  0
  2  4  1  0  0  0
  2  5  1  0  0  0
  3  6  1  0  0  0
  4  6  1  0  0  0
  5  8  1  0  0  0
 17 18  1  0  0  0
 19 20  1  0  0  0
 22 21  1  0  0  0
 21  6  1  0  0  0
  8  9  1  0  0  0
  6  7  1  0  0  0
  9 10  1  0  0  0
M  CHG 1   6   1
M  END
> <minimizedAffinity>
-9.06244

> <CNNscore>
0.7241890430

> <CNNaffinity>
6.4039397240

> <CNN_VS>
4.6376628876

> <CNNaffinity_variance>
0.0141129224

$$$$



 29 31  0  0  0  0  0  0  0  0999 V2000
   13.5621   -0.4157   61.7967 C   0  0  0  0  0  0  0  0  0  0  0  0
   12.2662    0.9199   60.0991 C   0  0  0  0  0  0  0  0  0  0  0  0
   14.7128   -0.5440   60.8079 C   0  0  0  0  0  0  0  0  0  0  0  0
   13.4235    0.7846   59.1189 C   0  0  0  0  0  0  0  0  0  0  0  0
   12.2148   -0.2548   61.0830 C   0  0  0  0  0  0  0  0  0  0  0  0
   14.7172    0.6502   59.8847 N   0  0  0  0  0  0  0  0  0  0  0  0
   14.8141    1.4904   60.4716 H   0  0  0  0  0  0  0  0  0  0  0  0
   11.0855   -0.0664   62.0936 C   0  0  0  0  0  0  0  0  0  0  0  0
   10.4952    1.2130   61.8825 O   0  0  0  0  0  0  0  0  0  0  0  0
    9.8097    1.3168   62.5608 H   0  0  0  0  0  0  0  0  0  0  0  0
    8.8807   -2.7605   60.5926 C   0  0  0  0  0  0  0  0  0  0  0  0
    9.8668   -1.7849   60.7387 C   0  0  0  0  0  0  0  0  0  0  0  0
    8.0409   -3.0693   61.6628 C   0  0  0  0  0  0  0  0  0  0  0  0
   10.0133   -1.1181   61.9550 C   0  0  0  0  0  0  0  0  0  0  0  0
    8.1874   -2.4024   62.8792 C   0  0  0  0  0  0  0  0  0  0  0  0
    9.1735   -1.4267   63.0253 C   0  0  0  0  0  0  0  0  0  0  0  0
    6.0041   -3.0161   63.5951 C   0  0  0  0  0  0  0  0  0  0  0  0
    7.3604   -2.7137   63.9160 O   0  0  0  0  0  0  0  0  0  0  0  0
    8.4151    0.2992   64.4750 C   0  0  0  0  0  0  0  0  0  0  0  0
    9.3132   -0.7772   64.2162 O   0  0  0  0  0  0  0  0  0  0  0  0
   15.9073    0.6360   58.9652 C   0  0  0  0  0  0  0  0  0  0  0  0
   16.5756   -0.7350   58.9826 C   0  0  0  0  0  0  0  0  0  0  0  0
   18.0622   -0.1488   57.0480 C   0  0  0  0  0  0  0  0  0  0  0  0
   18.9846   -1.4266   58.8793 C   0  0  0  0  0  0  0  0  0  0  0  0
   19.2978   -0.1830   56.4018 C   0  0  0  0  0  0  0  0  0  0  0  0
   20.2203   -1.4608   58.2330 C   0  0  0  0  0  0  0  0  0  0  0  0
   17.9056   -0.7707   58.2868 C   0  0  0  0  0  0  0  0  0  0  0  0
   20.3769   -0.8390   56.9942 C   0  0  0  0  0  0  0  0  0  0  0  0
   21.5628   -0.8741   56.3724 F   0  0  0  0  0  0  0  0  0  0  0  0
 11 12  1  0  0  0
 11 13  2  0  0  0
 12 14  2  0  0  0
 23 25  2  0  0  0
 23 27  1  0  0  0
 24 26  1  0  0  0
 24 27  2  0  0  0
 13 15  1  0  0  0
 25 28  1  0  0  0
 26 28  2  0  0  0
 27 22  1  0  0  0
 14 16  1  0  0  0
 14  8  1  0  0  0
 15 16  2  0  0  0
 15 18  1  0  0  0
 16 20  1  0  0  0
 28 29  1  0  0  0
  1  3  1  0  0  0
  1  5  1  0  0  0
  2  4  1  0  0  0
  2  5  1  0  0  0
  3  6  1  0  0  0
  4  6  1  0  0  0
  5  8  1  0  0  0
 17 18  1  0  0  0
 19 20  1  0  0  0
 22 21  1  0  0  0
 21  6  1  0  0  0
  8  9  1  0  0  0
  6  7  1  0  0  0
  9 10  1  0  0  0
M  CHG 1   6   1
M  END
> <minimizedAffinity>
-9.62374

> <CNNscore>
0.7231884599

> <CNNaffinity>
6.3472142220

> <CNN_VS>
4.5902318954

> <CNNaffinity_variance>
0.0259326100

$$$$



 29 31  0  0  0  0  0  0  0  0999 V2000
   13.2057   -0.4088   61.2488 C   0  0  0  0  0  0  0  0  0  0  0  0
   12.5599    1.1558   59.3834 C   0  0  0  0  0  0  0  0  0  0  0  0
   14.6026   -0.5298   60.6550 C   0  0  0  0  0  0  0  0  0  0  0  0
   13.9600    1.0266   58.7991 C   0  0  0  0  0  0  0  0  0  0  0  0
   12.1573   -0.0936   60.1755 C   0  0  0  0  0  0  0  0  0  0  0  0
   14.9422    0.7370   59.9079 N   0  0  0  0  0  0  0  0  0  0  0  0
   14.8826    1.5141   60.5803 H   0  0  0  0  0  0  0  0  0  0  0  0
   10.7763    0.0839   60.8027 C   0  0  0  0  0  0  0  0  0  0  0  0
   10.1636    1.2377   60.2343 O   0  0  0  0  0  0  0  0  0  0  0  0
    9.3079    1.3438   60.6783 H   0  0  0  0  0  0  0  0  0  0  0  0
    8.8146   -3.1065   61.3903 C   0  0  0  0  0  0  0  0  0  0  0  0
    9.6405   -2.0020   61.5985 C   0  0  0  0  0  0  0  0  0  0  0  0
    8.2288   -3.3139   60.1414 C   0  0  0  0  0  0  0  0  0  0  0  0
    9.8805   -1.1047   60.5580 C   0  0  0  0  0  0  0  0  0  0  0  0
    8.4689   -2.4166   59.1008 C   0  0  0  0  0  0  0  0  0  0  0  0
    9.2948   -1.3120   59.3091 C   0  0  0  0  0  0  0  0  0  0  0  0
    6.5430   -2.1932   57.7237 C   0  0  0  0  0  0  0  0  0  0  0  0
    7.8905   -2.6312   57.8862 O   0  0  0  0  0  0  0  0  0  0  0  0
   10.3475   -0.8962   57.2175 C   0  0  0  0  0  0  0  0  0  0  0  0
    9.5268   -0.4372   58.2889 O   0  0  0  0  0  0  0  0  0  0  0  0
   16.3591    0.7205   59.4037 C   0  0  0  0  0  0  0  0  0  0  0  0
   16.8047   -0.7101   59.1180 C   0  0  0  0  0  0  0  0  0  0  0  0
   18.2448   -0.1808   57.1326 C   0  0  0  0  0  0  0  0  0  0  0  0
   19.1726   -1.5138   58.9212 C   0  0  0  0  0  0  0  0  0  0  0  0
   19.4526   -0.2686   56.4406 C   0  0  0  0  0  0  0  0  0  0  0  0
   20.3806   -1.6017   58.2291 C   0  0  0  0  0  0  0  0  0  0  0  0
   18.1048   -0.8035   58.3729 C   0  0  0  0  0  0  0  0  0  0  0  0
   20.5206   -0.9790   56.9888 C   0  0  0  0  0  0  0  0  0  0  0  0
   21.6797   -1.0655   56.3230 F   0  0  0  0  0  0  0  0  0  0  0  0
 11 12  1  0  0  0
 11 13  2  0  0  0
 12 14  2  0  0  0
 23 25  2  0  0  0
 23 27  1  0  0  0
 24 26  1  0  0  0
 24 27  2  0  0  0
 13 15  1  0  0  0
 25 28  1  0  0  0
 26 28  2  0  0  0
 27 22  1  0  0  0
 14 16  1  0  0  0
 14  8  1  0  0  0
 15 16  2  0  0  0
 15 18  1  0  0  0
 16 20  1  0  0  0
 28 29  1  0  0  0
  1  3  1  0  0  0
  1  5  1  0  0  0
  2  4  1  0  0  0
  2  5  1  0  0  0
  3  6  1  0  0  0
  4  6  1  0  0  0
  5  8  1  0  0  0
 17 18  1  0  0  0
 19 20  1  0  0  0
 22 21  1  0  0  0
 21  6  1  0  0  0
  8  9  1  0  0  0
  6  7  1  0  0  0
  9 10  1  0  0  0
M  CHG 1   6   1
M  END
> <minimizedAffinity>
-9.44054

> <CNNscore>
0.7231621146

> <CNNaffinity>
6.4479546547

> <CNN_VS>
4.6629166603

> <CNNaffinity_variance>
0.0079946052

$$$$



 29 31  0  0  0  0  0  0  0  0999 V2000
   12.7078   -0.3677   61.9764 C   0  0  0  0  0  0  0  0  0  0  0  0
   12.0903    0.8259   59.8459 C   0  0  0  0  0  0  0  0  0  0  0  0
   14.1129   -0.5937   61.4350 C   0  0  0  0  0  0  0  0  0  0  0  0
   13.4985    0.5935   59.3153 C   0  0  0  0  0  0  0  0  0  0  0  0
   11.6752   -0.2570   60.8486 C   0  0  0  0  0  0  0  0  0  0  0  0
   14.4645    0.5144   60.4724 N   0  0  0  0  0  0  0  0  0  0  0  0
   14.3962    1.4020   60.9893 H   0  0  0  0  0  0  0  0  0  0  0  0
   10.2856    0.0307   61.4128 C   0  0  0  0  0  0  0  0  0  0  0  0
    9.4205    0.3783   60.3354 O   0  0  0  0  0  0  0  0  0  0  0  0
    8.5598    0.5904   60.7290 H   0  0  0  0  0  0  0  0  0  0  0  0
    8.9141   -3.4431   62.0636 C   0  0  0  0  0  0  0  0  0  0  0  0
    9.4529   -2.3316   61.4157 C   0  0  0  0  0  0  0  0  0  0  0  0
    8.6247   -3.3835   63.4269 C   0  0  0  0  0  0  0  0  0  0  0  0
    9.7025   -1.1605   62.1310 C   0  0  0  0  0  0  0  0  0  0  0  0
    8.8742   -2.2123   64.1422 C   0  0  0  0  0  0  0  0  0  0  0  0
    9.4131   -1.1008   63.4943 C   0  0  0  0  0  0  0  0  0  0  0  0
    9.6344   -2.5201   66.3745 C   0  0  0  0  0  0  0  0  0  0  0  0
    8.5868   -2.1678   65.4731 O   0  0  0  0  0  0  0  0  0  0  0  0
    8.5415    0.8956   64.4484 C   0  0  0  0  0  0  0  0  0  0  0  0
    9.6555    0.0423   64.1975 O   0  0  0  0  0  0  0  0  0  0  0  0
   15.8884    0.4076   60.0000 C   0  0  0  0  0  0  0  0  0  0  0  0
   16.0473   -0.7803   59.0564 C   0  0  0  0  0  0  0  0  0  0  0  0
   15.2693   -0.9276   56.6755 C   0  0  0  0  0  0  0  0  0  0  0  0
   17.1513    0.4940   57.1992 C   0  0  0  0  0  0  0  0  0  0  0  0
   15.3734   -0.5702   55.3313 C   0  0  0  0  0  0  0  0  0  0  0  0
   17.2554    0.8514   55.8548 C   0  0  0  0  0  0  0  0  0  0  0  0
   16.1583   -0.3955   57.6095 C   0  0  0  0  0  0  0  0  0  0  0  0
   16.3664    0.3192   54.9209 C   0  0  0  0  0  0  0  0  0  0  0  0
   16.4681    0.6604   53.6295 F   0  0  0  0  0  0  0  0  0  0  0  0
 11 12  1  0  0  0
 11 13  2  0  0  0
 12 14  2  0  0  0
 23 25  2  0  0  0
 23 27  1  0  0  0
 24 26  1  0  0  0
 24 27  2  0  0  0
 13 15  1  0  0  0
 25 28  1  0  0  0
 26 28  2  0  0  0
 27 22  1  0  0  0
 14 16  1  0  0  0
 14  8  1  0  0  0
 15 16  2  0  0  0
 15 18  1  0  0  0
 16 20  1  0  0  0
 28 29  1  0  0  0
  1  3  1  0  0  0
  1  5  1  0  0  0
  2  4  1  0  0  0
  2  5  1  0  0  0
  3  6  1  0  0  0
  4  6  1  0  0  0
  5  8  1  0  0  0
 17 18  1  0  0  0
 19 20  1  0  0  0
 22 21  1  0  0  0
 21  6  1  0  0  0
  8  9  1  0  0  0
  6  7  1  0  0  0
  9 10  1  0  0  0
M  CHG 1   6   1
M  END
> <minimizedAffinity>
-9.22368

> <CNNscore>
0.6161929369

> <CNNaffinity>
6.4588456154

> <CNN_VS>
3.9798951149

> <CNNaffinity_variance>
0.0375129990

$$$$



 29 31  0  0  0  0  0  0  0  0999 V2000
   12.9485    0.5491   59.8471 C   0  0  0  0  0  0  0  0  0  0  0  0
   11.9688    0.4631   57.5281 C   0  0  0  0  0  0  0  0  0  0  0  0
   14.2533   -0.0234   59.3101 C   0  0  0  0  0  0  0  0  0  0  0  0
   13.2785   -0.1091   57.0030 C   0  0  0  0  0  0  0  0  0  0  0  0
   11.7458    0.1107   59.0034 C   0  0  0  0  0  0  0  0  0  0  0  0
   14.4194    0.3759   57.8640 N   0  0  0  0  0  0  0  0  0  0  0  0
   14.4141    1.4046   57.8280 H   0  0  0  0  0  0  0  0  0  0  0  0
   10.4585    0.7463   59.5240 C   0  0  0  0  0  0  0  0  0  0  0  0
    9.4296    0.5452   58.5591 O   0  0  0  0  0  0  0  0  0  0  0  0
    8.6388    0.9906   58.9009 H   0  0  0  0  0  0  0  0  0  0  0  0
    9.5750    0.4040   63.1947 C   0  0  0  0  0  0  0  0  0  0  0  0
    9.9846    0.9438   61.9756 C   0  0  0  0  0  0  0  0  0  0  0  0
    9.1934   -0.9356   63.2714 C   0  0  0  0  0  0  0  0  0  0  0  0
   10.0127    0.1443   60.8331 C   0  0  0  0  0  0  0  0  0  0  0  0
    9.2216   -1.7352   62.1288 C   0  0  0  0  0  0  0  0  0  0  0  0
    9.6312   -1.1953   60.9096 C   0  0  0  0  0  0  0  0  0  0  0  0
    8.4971   -3.5290   63.5119 C   0  0  0  0  0  0  0  0  0  0  0  0
    8.8464   -3.0418   62.2179 O   0  0  0  0  0  0  0  0  0  0  0  0
    8.4023   -2.4389   59.2974 C   0  0  0  0  0  0  0  0  0  0  0  0
    9.6572   -1.9807   59.7950 O   0  0  0  0  0  0  0  0  0  0  0  0
   15.7510   -0.0604   57.3177 C   0  0  0  0  0  0  0  0  0  0  0  0
   16.7218   -0.3551   58.4567 C   0  0  0  0  0  0  0  0  0  0  0  0
   18.5609   -0.1626   56.7607 C   0  0  0  0  0  0  0  0  0  0  0  0
   18.9967   -1.3472   58.8207 C   0  0  0  0  0  0  0  0  0  0  0  0
   19.8657   -0.4169   56.3384 C   0  0  0  0  0  0  0  0  0  0  0  0
   20.3016   -1.6016   58.3984 C   0  0  0  0  0  0  0  0  0  0  0  0
   18.1264   -0.6278   58.0019 C   0  0  0  0  0  0  0  0  0  0  0  0
   20.7361   -1.1364   57.1572 C   0  0  0  0  0  0  0  0  0  0  0  0
   21.9884   -1.3829   56.7506 F   0  0  0  0  0  0  0  0  0  0  0  0
 11 12  1  0  0  0
 11 13  2  0  0  0
 12 14  2  0  0  0
 23 25  2  0  0  0
 23 27  1  0  0  0
 24 26  1  0  0  0
 24 27  2  0  0  0
 13 15  1  0  0  0
 25 28  1  0  0  0
 26 28  2  0  0  0
 27 22  1  0  0  0
 14 16  1  0  0  0
 14  8  1  0  0  0
 15 16  2  0  0  0
 15 18  1  0  0  0
 16 20  1  0  0  0
 28 29  1  0  0  0
  1  3  1  0  0  0
  1  5  1  0  0  0
  2  4  1  0  0  0
  2  5  1  0  0  0
  3  6  1  0  0  0
  4  6  1  0  0  0
  5  8  1  0  0  0
 17 18  1  0  0  0
 19 20  1  0  0  0
 22 21  1  0  0  0
 21  6  1  0  0  0
  8  9  1  0  0  0
  6  7  1  0  0  0
  9 10  1  0  0  0
M  CHG 1   6   1
M  END
> <minimizedAffinity>
-9.07126

> <CNNscore>
0.5502402782

> <CNNaffinity>
6.1158475876

> <CNN_VS>
3.3651857376

> <CNNaffinity_variance>
0.0353545956

$$$$



 25 28  0  0  0  0  0  0  0  0999 V2000
   12.2533   -1.4048   53.9170 C   0  0  0  0  0  0  0  0  0  0  0  0
   13.2464   -0.9138   53.0761 C   0  0  0  0  0  0  0  0  0  0  0  0
   12.3059   -1.1409   55.2875 C   0  0  0  0  0  0  0  0  0  0  0  0
   14.2840   -0.1524   53.6062 C   0  0  0  0  0  0  0  0  0  0  0  0
   17.5472    0.3788   55.9418 C   0  0  0  0  0  0  0  0  0  0  0  0
   18.4923   -0.1394   56.8210 C   0  0  0  0  0  0  0  0  0  0  0  0
   16.7419   -0.5423   58.4357 C   0  0  0  0  0  0  0  0  0  0  0  0
   15.7701   -0.0135   57.5677 C   0  0  0  0  0  0  0  0  0  0  0  0
   13.3632   -0.4068   55.8489 C   0  0  0  0  0  0  0  0  0  0  0  0
   16.1978    0.4192   56.3111 C   0  0  0  0  0  0  0  0  0  0  0  0
   14.3425    0.0930   54.9839 C   0  0  0  0  0  0  0  0  0  0  0  0
   18.0885   -0.6065   58.0671 C   0  0  0  0  0  0  0  0  0  0  0  0
   14.3583    0.0722   57.9950 C   0  0  0  0  0  0  0  0  0  0  0  0
   13.3178   -0.1646   57.1932 N   0  0  0  0  0  0  0  0  0  0  0  0
   15.3258    0.9565   55.4013 O   0  0  0  0  0  0  0  0  0  0  0  0
   19.2488   -1.2598   59.1580 Cl  0  0  0  0  0  0  0  0  0  0  0  0
   12.4098   -0.2349   57.6468 H   0  0  0  0  0  0  0  0  0  0  0  0
   14.8157   -0.3148   60.3777 C   0  0  0  0  0  0  0  0  0  0  0  0
   13.2077    1.4367   59.6831 C   0  0  0  0  0  0  0  0  0  0  0  0
   13.8363   -0.8169   61.4283 C   0  0  0  0  0  0  0  0  0  0  0  0
   12.2105    0.9547   60.7262 C   0  0  0  0  0  0  0  0  0  0  0  0
   12.0435   -0.0688   62.9988 C   0  0  0  0  0  0  0  0  0  0  0  0
   14.1174    0.3669   59.2963 N   0  0  0  0  0  0  0  0  0  0  0  0
   12.9659    0.3355   61.8834 N   0  0  0  0  0  0  0  0  0  0  0  0
   13.5896    1.0595   62.2662 H   0  0  0  0  0  0  0  0  0  0  0  0
  1  2  1  0  0  0
  1  3  2  0  0  0
  2  4  2  0  0  0
  3  9  1  0  0  0
  4 11  1  0  0  0
  5  6  2  0  0  0
  5 10  1  0  0  0
  6 12  1  0  0  0
  7  8  1  0  0  0
  7 12  2  0  0  0
  8 10  2  0  0  0
  8 13  1  0  0  0
  9 11  2  0  0  0
  9 14  1  0  0  0
 10 15  1  0  0  0
 11 15  1  0  0  0
 12 16  1  0  0  0
 13 23  1  0  0  0
 13 14  2  0  0  0
 18 20  1  0  0  0
 18 23  1  0  0  0
 19 21  1  0  0  0
 19 23  1  0  0  0
 20 24  1  0  0  0
 21 24  1  0  0  0
 22 24  1  0  0  0
 14 17  1  0  0  0
 24 25  1  0  0  0
M  CHG 1  14   1
M  CHG 1  24   1
M  END
> <minimizedAffinity>
-8.47629

> <CNNscore>
0.5882738233

> <CNNaffinity>
6.5706605911

> <CNN_VS>
3.8653476238

> <CNNaffinity_variance>
0.1878868043

$$$$



 25 28  0  0  0  0  0  0  0  0999 V2000
    5.7820   -4.6429   61.3337 C   0  0  0  0  0  0  0  0  0  0  0  0
    5.8325   -5.2116   62.6020 C   0  0  0  0  0  0  0  0  0  0  0  0
    6.6441   -3.5948   61.0040 C   0  0  0  0  0  0  0  0  0  0  0  0
    6.7511   -4.7373   63.5338 C   0  0  0  0  0  0  0  0  0  0  0  0
    8.2901   -1.8878   65.9624 C   0  0  0  0  0  0  0  0  0  0  0  0
    8.2311   -0.6048   66.4965 C   0  0  0  0  0  0  0  0  0  0  0  0
    8.6140    0.3094   64.2940 C   0  0  0  0  0  0  0  0  0  0  0  0
    8.6875   -0.9780   63.7331 C   0  0  0  0  0  0  0  0  0  0  0  0
    7.5529   -3.0759   61.9404 C   0  0  0  0  0  0  0  0  0  0  0  0
    8.4963   -2.0640   64.5894 C   0  0  0  0  0  0  0  0  0  0  0  0
    7.6002   -3.6732   63.2045 C   0  0  0  0  0  0  0  0  0  0  0  0
    8.3870    0.4955   65.6605 C   0  0  0  0  0  0  0  0  0  0  0  0
    8.9607   -1.1469   62.2910 C   0  0  0  0  0  0  0  0  0  0  0  0
    8.3839   -2.0741   61.5233 N   0  0  0  0  0  0  0  0  0  0  0  0
    8.5580   -3.3555   64.1364 O   0  0  0  0  0  0  0  0  0  0  0  0
    8.3047    2.0875   66.3099 Cl  0  0  0  0  0  0  0  0  0  0  0  0
    8.5299   -1.9797   60.5209 H   0  0  0  0  0  0  0  0  0  0  0  0
   11.0059    0.2095   62.4058 C   0  0  0  0  0  0  0  0  0  0  0  0
    9.6456    0.1738   60.3360 C   0  0  0  0  0  0  0  0  0  0  0  0
   11.1043    1.7260   62.3317 C   0  0  0  0  0  0  0  0  0  0  0  0
    9.7291    1.6898   60.2383 C   0  0  0  0  0  0  0  0  0  0  0  0
   11.2130    3.6386   60.7284 C   0  0  0  0  0  0  0  0  0  0  0  0
    9.8188   -0.2713   61.7120 N   0  0  0  0  0  0  0  0  0  0  0  0
   11.0175    2.1566   60.8826 N   0  0  0  0  0  0  0  0  0  0  0  0
   11.7941    1.7044   60.3803 H   0  0  0  0  0  0  0  0  0  0  0  0
  1  2  1  0  0  0
  1  3  2  0  0  0
  2  4  2  0  0  0
  3  9  1  0  0  0
  4 11  1  0  0  0
  5  6  2  0  0  0
  5 10  1  0  0  0
  6 12  1  0  0  0
  7  8  1  0  0  0
  7 12  2  0  0  0
  8 10  2  0  0  0
  8 13  1  0  0  0
  9 11  2  0  0  0
  9 14  1  0  0  0
 10 15  1  0  0  0
 11 15  1  0  0  0
 12 16  1  0  0  0
 13 23  1  0  0  0
 13 14  2  0  0  0
 18 20  1  0  0  0
 18 23  1  0  0  0
 19 21  1  0  0  0
 19 23  1  0  0  0
 20 24  1  0  0  0
 21 24  1  0  0  0
 22 24  1  0  0  0
 14 17  1  0  0  0
 24 25  1  0  0  0
M  CHG 1  14   1
M  CHG 1  24   1
M  END
> <minimizedAffinity>
-7.16473

> <CNNscore>
0.4682889879

> <CNNaffinity>
6.1728863716

> <CNN_VS>
2.8906946182

> <CNNaffinity_variance>
0.0206043292

$$$$



 25 28  0  0  0  0  0  0  0  0999 V2000
    9.7997   -2.2546   58.4011 C   0  0  0  0  0  0  0  0  0  0  0  0
   10.3667   -1.0307   58.7403 C   0  0  0  0  0  0  0  0  0  0  0  0
    8.8874   -2.8645   59.2651 C   0  0  0  0  0  0  0  0  0  0  0  0
   10.0129   -0.4155   59.9376 C   0  0  0  0  0  0  0  0  0  0  0  0
    9.8428   -0.1998   63.9762 C   0  0  0  0  0  0  0  0  0  0  0  0
   10.1546   -0.7346   65.2219 C   0  0  0  0  0  0  0  0  0  0  0  0
    8.7577   -2.6429   64.7315 C   0  0  0  0  0  0  0  0  0  0  0  0
    8.4202   -2.1174   63.4715 C   0  0  0  0  0  0  0  0  0  0  0  0
    8.5445   -2.2798   60.4949 C   0  0  0  0  0  0  0  0  0  0  0  0
    8.9990   -0.9004   63.1067 C   0  0  0  0  0  0  0  0  0  0  0  0
    9.1123   -1.0405   60.8094 C   0  0  0  0  0  0  0  0  0  0  0  0
    9.6165   -1.9606   65.5976 C   0  0  0  0  0  0  0  0  0  0  0  0
    7.4844   -2.8439   62.5886 C   0  0  0  0  0  0  0  0  0  0  0  0
    7.6173   -2.9265   61.2630 N   0  0  0  0  0  0  0  0  0  0  0  0
    8.7238   -0.3062   61.9033 O   0  0  0  0  0  0  0  0  0  0  0  0
   10.0050   -2.6362   67.1325 Cl  0  0  0  0  0  0  0  0  0  0  0  0
    7.0056   -3.5892   60.7921 H   0  0  0  0  0  0  0  0  0  0  0  0
    6.3288   -4.9506   63.1007 C   0  0  0  0  0  0  0  0  0  0  0  0
    5.4640   -2.8047   63.9856 C   0  0  0  0  0  0  0  0  0  0  0  0
    4.9265   -5.3540   62.6696 C   0  0  0  0  0  0  0  0  0  0  0  0
    4.0519   -3.1842   63.5650 C   0  0  0  0  0  0  0  0  0  0  0  0
    2.5143   -5.1321   63.2798 C   0  0  0  0  0  0  0  0  0  0  0  0
    6.4550   -3.5015   63.1770 N   0  0  0  0  0  0  0  0  0  0  0  0
    3.9184   -4.6925   63.5855 N   0  0  0  0  0  0  0  0  0  0  0  0
    4.1218   -5.0063   64.5447 H   0  0  0  0  0  0  0  0  0  0  0  0
  1  2  1  0  0  0
  1  3  2  0  0  0
  2  4  2  0  0  0
  3  9  1  0  0  0
  4 11  1  0  0  0
  5  6  2  0  0  0
  5 10  1  0  0  0
  6 12  1  0  0  0
  7  8  1  0  0  0
  7 12  2  0  0  0
  8 10  2  0  0  0
  8 13  1  0  0  0
  9 11  2  0  0  0
  9 14  1  0  0  0
 10 15  1  0  0  0
 11 15  1  0  0  0
 12 16  1  0  0  0
 13 23  1  0  0  0
 13 14  2  0  0  0
 18 20  1  0  0  0
 18 23  1  0  0  0
 19 21  1  0  0  0
 19 23  1  0  0  0
 20 24  1  0  0  0
 21 24  1  0  0  0
 22 24  1  0  0  0
 14 17  1  0  0  0
 24 25  1  0  0  0
M  CHG 1  14   1
M  CHG 1  24   1
M  END
> <minimizedAffinity>
-6.93124

> <CNNscore>
0.4631552398

> <CNNaffinity>
5.8455414772

> <CNN_VS>
2.7073931694

> <CNNaffinity_variance>
0.2461288422

$$$$



 25 28  0  0  0  0  0  0  0  0999 V2000
    7.8299    0.6044   65.8357 C   0  0  0  0  0  0  0  0  0  0  0  0
    9.1375    0.4612   65.3839 C   0  0  0  0  0  0  0  0  0  0  0  0
    6.8695   -0.3554   65.5086 C   0  0  0  0  0  0  0  0  0  0  0  0
    9.4835   -0.6459   64.6145 C   0  0  0  0  0  0  0  0  0  0  0  0
    9.2597   -2.9503   61.2941 C   0  0  0  0  0  0  0  0  0  0  0  0
    8.7522   -3.1725   60.0181 C   0  0  0  0  0  0  0  0  0  0  0  0
    6.5350   -3.3719   60.9549 C   0  0  0  0  0  0  0  0  0  0  0  0
    7.0263   -3.1594   62.2553 C   0  0  0  0  0  0  0  0  0  0  0  0
    7.1877   -1.4606   64.7028 C   0  0  0  0  0  0  0  0  0  0  0  0
    8.3955   -2.9252   62.3948 C   0  0  0  0  0  0  0  0  0  0  0  0
    8.5122   -1.5955   64.2732 C   0  0  0  0  0  0  0  0  0  0  0  0
    7.3874   -3.3773   59.8473 C   0  0  0  0  0  0  0  0  0  0  0  0
    6.1078   -3.1908   63.4122 C   0  0  0  0  0  0  0  0  0  0  0  0
    6.1964   -2.3699   64.4610 N   0  0  0  0  0  0  0  0  0  0  0  0
    8.9671   -2.7162   63.6222 O   0  0  0  0  0  0  0  0  0  0  0  0
    6.7481   -3.6421   58.2712 Cl  0  0  0  0  0  0  0  0  0  0  0  0
    5.4106   -2.3824   65.1071 H   0  0  0  0  0  0  0  0  0  0  0  0
    5.3281   -5.5170   63.2811 C   0  0  0  0  0  0  0  0  0  0  0  0
    3.6992   -3.6648   63.5079 C   0  0  0  0  0  0  0  0  0  0  0  0
    4.4872   -6.1400   62.1767 C   0  0  0  0  0  0  0  0  0  0  0  0
    2.8395   -4.2673   62.4066 C   0  0  0  0  0  0  0  0  0  0  0  0
    2.1339   -6.4389   61.3937 C   0  0  0  0  0  0  0  0  0  0  0  0
    5.0879   -4.0833   63.3747 N   0  0  0  0  0  0  0  0  0  0  0  0
    3.0351   -5.7688   62.3923 N   0  0  0  0  0  0  0  0  0  0  0  0
    2.7612   -6.1235   63.3190 H   0  0  0  0  0  0  0  0  0  0  0  0
  1  2  1  0  0  0
  1  3  2  0  0  0
  2  4  2  0  0  0
  3  9  1  0  0  0
  4 11  1  0  0  0
  5  6  2  0  0  0
  5 10  1  0  0  0
  6 12  1  0  0  0
  7  8  1  0  0  0
  7 12  2  0  0  0
  8 10  2  0  0  0
  8 13  1  0  0  0
  9 11  2  0  0  0
  9 14  1  0  0  0
 10 15  1  0  0  0
 11 15  1  0  0  0
 12 16  1  0  0  0
 13 23  1  0  0  0
 13 14  2  0  0  0
 18 20  1  0  0  0
 18 23  1  0  0  0
 19 21  1  0  0  0
 19 23  1  0  0  0
 20 24  1  0  0  0
 21 24  1  0  0  0
 22 24  1  0  0  0
 14 17  1  0  0  0
 24 25  1  0  0  0
M  CHG 1  14   1
M  CHG 1  24   1
M  END
> <minimizedAffinity>
-8.12722

> <CNNscore>
0.4354067743

> <CNNaffinity>
5.4898476601

> <CNN_VS>
2.3903169632

> <CNNaffinity_variance>
0.2250853777

$$$$



 25 28  0  0  0  0  0  0  0  0999 V2000
   13.8703   -0.7690   63.7883 C   0  0  0  0  0  0  0  0  0  0  0  0
   14.7504   -1.8210   63.5580 C   0  0  0  0  0  0  0  0  0  0  0  0
   13.3703   -0.0294   62.7142 C   0  0  0  0  0  0  0  0  0  0  0  0
   15.1207   -2.1368   62.2540 C   0  0  0  0  0  0  0  0  0  0  0  0
   16.9010   -1.3327   58.7087 C   0  0  0  0  0  0  0  0  0  0  0  0
   17.6507   -0.4776   57.9077 C   0  0  0  0  0  0  0  0  0  0  0  0
   15.8535    1.1343   57.9785 C   0  0  0  0  0  0  0  0  0  0  0  0
   15.0731    0.2827   58.7806 C   0  0  0  0  0  0  0  0  0  0  0  0
   13.7595   -0.3068   61.3938 C   0  0  0  0  0  0  0  0  0  0  0  0
   15.6333   -0.9405   59.1537 C   0  0  0  0  0  0  0  0  0  0  0  0
   14.6316   -1.3799   61.1819 C   0  0  0  0  0  0  0  0  0  0  0  0
   17.1291    0.7601   57.5472 C   0  0  0  0  0  0  0  0  0  0  0  0
   13.7149    0.6896   59.1959 C   0  0  0  0  0  0  0  0  0  0  0  0
   13.1948    0.4428   60.4002 N   0  0  0  0  0  0  0  0  0  0  0  0
   14.9462   -1.8393   59.9263 O   0  0  0  0  0  0  0  0  0  0  0  0
   18.0535    1.8300   56.5654 Cl  0  0  0  0  0  0  0  0  0  0  0  0
   12.3210    0.9169   60.6163 H   0  0  0  0  0  0  0  0  0  0  0  0
   12.9553    2.8530   58.3132 C   0  0  0  0  0  0  0  0  0  0  0  0
   12.2269    0.7418   57.2418 C   0  0  0  0  0  0  0  0  0  0  0  0
   11.5277    3.3783   58.2807 C   0  0  0  0  0  0  0  0  0  0  0  0
   10.7913    1.2436   57.1966 C   0  0  0  0  0  0  0  0  0  0  0  0
    9.4108    3.3115   56.9561 C   0  0  0  0  0  0  0  0  0  0  0  0
   12.9760    1.3965   58.3056 N   0  0  0  0  0  0  0  0  0  0  0  0
   10.7985    2.7553   57.1090 N   0  0  0  0  0  0  0  0  0  0  0  0
   11.3130    3.0115   56.2550 H   0  0  0  0  0  0  0  0  0  0  0  0
  1  2  1  0  0  0
  1  3  2  0  0  0
  2  4  2  0  0  0
  3  9  1  0  0  0
  4 11  1  0  0  0
  5  6  2  0  0  0
  5 10  1  0  0  0
  6 12  1  0  0  0
  7  8  1  0  0  0
  7 12  2  0  0  0
  8 10  2  0  0  0
  8 13  1  0  0  0
  9 11  2  0  0  0
  9 14  1  0  0  0
 10 15  1  0  0  0
 11 15  1  0  0  0
 12 16  1  0  0  0
 13 23  1  0  0  0
 13 14  2  0  0  0
 18 20  1  0  0  0
 18 23  1  0  0  0
 19 21  1  0  0  0
 19 23  1  0  0  0
 20 24  1  0  0  0
 21 24  1  0  0  0
 22 24  1  0  0  0
 14 17  1  0  0  0
 24 25  1  0  0  0
M  CHG 1  14   1
M  CHG 1  24   1
M  END
> <minimizedAffinity>
12.94087

> <CNNscore>
0.4132226110

> <CNNaffinity>
6.0871353149

> <CNN_VS>
2.5153419971

> <CNNaffinity_variance>
0.8708316684

$$$$



 25 28  0  0  0  0  0  0  0  0999 V2000
   14.0967    1.3146   53.3884 C   0  0  0  0  0  0  0  0  0  0  0  0
   13.5984    0.1516   52.8108 C   0  0  0  0  0  0  0  0  0  0  0  0
   13.9821    1.5142   54.7659 C   0  0  0  0  0  0  0  0  0  0  0  0
   12.9956   -0.8128   53.6132 C   0  0  0  0  0  0  0  0  0  0  0  0
   10.1013   -2.1368   56.1144 C   0  0  0  0  0  0  0  0  0  0  0  0
    8.9083   -1.9160   56.7947 C   0  0  0  0  0  0  0  0  0  0  0  0
    9.9916   -0.1951   58.0979 C   0  0  0  0  0  0  0  0  0  0  0  0
   11.2112   -0.4072   57.4306 C   0  0  0  0  0  0  0  0  0  0  0  0
   13.3447    0.5717   55.5889 C   0  0  0  0  0  0  0  0  0  0  0  0
   11.2323   -1.3715   56.4212 C   0  0  0  0  0  0  0  0  0  0  0  0
   12.8661   -0.5991   54.9913 C   0  0  0  0  0  0  0  0  0  0  0  0
    8.8515   -0.9397   57.7834 C   0  0  0  0  0  0  0  0  0  0  0  0
   12.4096    0.3716   57.8050 C   0  0  0  0  0  0  0  0  0  0  0  0
   13.3080    0.8297   56.9306 N   0  0  0  0  0  0  0  0  0  0  0  0
   12.3758   -1.6541   55.7216 O   0  0  0  0  0  0  0  0  0  0  0  0
    7.3769   -0.6513   58.6234 Cl  0  0  0  0  0  0  0  0  0  0  0  0
   13.9923    1.4885   57.2952 H   0  0  0  0  0  0  0  0  0  0  0  0
   13.4107   -0.1394   59.9897 C   0  0  0  0  0  0  0  0  0  0  0  0
   11.9872    1.8680   59.7071 C   0  0  0  0  0  0  0  0  0  0  0  0
   12.6753   -0.4975   61.2727 C   0  0  0  0  0  0  0  0  0  0  0  0
   11.2363    1.5329   60.9872 C   0  0  0  0  0  0  0  0  0  0  0  0
   11.5103    0.4994   63.2448 C   0  0  0  0  0  0  0  0  0  0  0  0
   12.5733    0.6722   59.1169 N   0  0  0  0  0  0  0  0  0  0  0  0
   12.1583    0.7718   61.9165 N   0  0  0  0  0  0  0  0  0  0  0  0
   12.9713    1.3745   62.1048 H   0  0  0  0  0  0  0  0  0  0  0  0
  1  2  1  0  0  0
  1  3  2  0  0  0
  2  4  2  0  0  0
  3  9  1  0  0  0
  4 11  1  0  0  0
  5  6  2  0  0  0
  5 10  1  0  0  0
  6 12  1  0  0  0
  7  8  1  0  0  0
  7 12  2  0  0  0
  8 10  2  0  0  0
  8 13  1  0  0  0
  9 11  2  0  0  0
  9 14  1  0  0  0
 10 15  1  0  0  0
 11 15  1  0  0  0
 12 16  1  0  0  0
 13 23  1  0  0  0
 13 14  2  0  0  0
 18 20  1  0  0  0
 18 23  1  0  0  0
 19 21  1  0  0  0
 19 23  1  0  0  0
 20 24  1  0  0  0
 21 24  1  0  0  0
 22 24  1  0  0  0
 14 17  1  0  0  0
 24 25  1  0  0  0
M  CHG 1  14   1
M  CHG 1  24   1
M  END
> <minimizedAffinity>
-5.95416

> <CNNscore>
0.3877349794

> <CNNaffinity>
6.1578674316

> <CNN_VS>
2.3876206875

> <CNNaffinity_variance>
0.0796326771

$$$$



 25 28  0  0  0  0  0  0  0  0999 V2000
   18.0439    1.6786   56.4546 C   0  0  0  0  0  0  0  0  0  0  0  0
   18.0945    0.5940   55.5853 C   0  0  0  0  0  0  0  0  0  0  0  0
   17.0510    1.7417   57.4347 C   0  0  0  0  0  0  0  0  0  0  0  0
   17.1582   -0.4289   55.7045 C   0  0  0  0  0  0  0  0  0  0  0  0
   13.3957   -1.9161   55.5725 C   0  0  0  0  0  0  0  0  0  0  0  0
   12.0390   -1.7315   55.3268 C   0  0  0  0  0  0  0  0  0  0  0  0
   11.9341   -0.1815   57.1760 C   0  0  0  0  0  0  0  0  0  0  0  0
   13.3019   -0.3596   57.4497 C   0  0  0  0  0  0  0  0  0  0  0  0
   16.0740    0.7394   57.5488 C   0  0  0  0  0  0  0  0  0  0  0  0
   14.0184   -1.2176   56.6132 C   0  0  0  0  0  0  0  0  0  0  0  0
   16.1529   -0.3514   56.6766 C   0  0  0  0  0  0  0  0  0  0  0  0
   11.3085   -0.8584   56.1254 C   0  0  0  0  0  0  0  0  0  0  0  0
   13.9311    0.3438   58.5866 C   0  0  0  0  0  0  0  0  0  0  0  0
   15.1608    0.8621   58.5583 N   0  0  0  0  0  0  0  0  0  0  0  0
   15.3528   -1.4604   56.8063 O   0  0  0  0  0  0  0  0  0  0  0  0
    9.6316   -0.6147   55.8226 Cl  0  0  0  0  0  0  0  0  0  0  0  0
   15.4123    1.4614   59.3411 H   0  0  0  0  0  0  0  0  0  0  0  0
   13.2798   -0.4195   60.8292 C   0  0  0  0  0  0  0  0  0  0  0  0
   12.3152    1.6589   59.8883 C   0  0  0  0  0  0  0  0  0  0  0  0
   11.8985   -0.8748   61.2762 C   0  0  0  0  0  0  0  0  0  0  0  0
   10.9232    1.2274   60.3254 C   0  0  0  0  0  0  0  0  0  0  0  0
    9.6932   -0.0349   62.0956 C   0  0  0  0  0  0  0  0  0  0  0  0
   13.1872    0.5062   59.7084 N   0  0  0  0  0  0  0  0  0  0  0  0
   11.0411    0.3430   61.5489 N   0  0  0  0  0  0  0  0  0  0  0  0
   11.5113    0.8926   62.2815 H   0  0  0  0  0  0  0  0  0  0  0  0
  1  2  1  0  0  0
  1  3  2  0  0  0
  2  4  2  0  0  0
  3  9  1  0  0  0
  4 11  1  0  0  0
  5  6  2  0  0  0
  5 10  1  0  0  0
  6 12  1  0  0  0
  7  8  1  0  0  0
  7 12  2  0  0  0
  8 10  2  0  0  0
  8 13  1  0  0  0
  9 11  2  0  0  0
  9 14  1  0  0  0
 10 15  1  0  0  0
 11 15  1  0  0  0
 12 16  1  0  0  0
 13 23  1  0  0  0
 13 14  2  0  0  0
 18 20  1  0  0  0
 18 23  1  0  0  0
 19 21  1  0  0  0
 19 23  1  0  0  0
 20 24  1  0  0  0
 21 24  1  0  0  0
 22 24  1  0  0  0
 14 17  1  0  0  0
 24 25  1  0  0  0
M  CHG 1  14   1
M  CHG 1  24   1
M  END
> <minimizedAffinity>
-6.25686

> <CNNscore>
0.3752740920

> <CNNaffinity>
6.1376595497

> <CNN_VS>
2.3033046722

> <CNNaffinity_variance>
0.1567456275

$$$$



 25 28  0  0  0  0  0  0  0  0999 V2000
    6.3488   -3.7365   59.8024 C   0  0  0  0  0  0  0  0  0  0  0  0
    5.9668   -4.3873   60.9708 C   0  0  0  0  0  0  0  0  0  0  0  0
    7.4187   -2.8390   59.8214 C   0  0  0  0  0  0  0  0  0  0  0  0
    6.6614   -4.1463   62.1525 C   0  0  0  0  0  0  0  0  0  0  0  0
    7.9076   -1.7821   65.1928 C   0  0  0  0  0  0  0  0  0  0  0  0
    7.9051   -0.5470   65.8327 C   0  0  0  0  0  0  0  0  0  0  0  0
    9.0045    0.4275   63.9156 C   0  0  0  0  0  0  0  0  0  0  0  0
    9.0274   -0.8128   63.2532 C   0  0  0  0  0  0  0  0  0  0  0  0
    8.1096   -2.5528   61.0099 C   0  0  0  0  0  0  0  0  0  0  0  0
    8.4471   -1.9014   63.9069 C   0  0  0  0  0  0  0  0  0  0  0  0
    7.7213   -3.2309   62.1703 C   0  0  0  0  0  0  0  0  0  0  0  0
    8.4485    0.5606   65.1909 C   0  0  0  0  0  0  0  0  0  0  0  0
    9.6503   -0.9323   61.9188 C   0  0  0  0  0  0  0  0  0  0  0  0
    9.1664   -1.6896   60.9318 N   0  0  0  0  0  0  0  0  0  0  0  0
    8.4291   -3.1506   63.3447 O   0  0  0  0  0  0  0  0  0  0  0  0
    8.4403    2.0957   65.9698 Cl  0  0  0  0  0  0  0  0  0  0  0  0
    9.5904   -1.5570   60.0165 H   0  0  0  0  0  0  0  0  0  0  0  0
   10.8006    0.7938   60.6022 C   0  0  0  0  0  0  0  0  0  0  0  0
   11.9345   -0.2677   62.5318 C   0  0  0  0  0  0  0  0  0  0  0  0
   12.0501    0.6162   59.7524 C   0  0  0  0  0  0  0  0  0  0  0  0
   13.1969   -0.4567   61.7039 C   0  0  0  0  0  0  0  0  0  0  0  0
   14.5451    0.5652   59.8659 C   0  0  0  0  0  0  0  0  0  0  0  0
   10.7571   -0.1872   61.6781 N   0  0  0  0  0  0  0  0  0  0  0  0
   13.2669    0.6318   60.6534 N   0  0  0  0  0  0  0  0  0  0  0  0
   13.2730    1.5353   61.1467 H   0  0  0  0  0  0  0  0  0  0  0  0
  1  2  1  0  0  0
  1  3  2  0  0  0
  2  4  2  0  0  0
  3  9  1  0  0  0
  4 11  1  0  0  0
  5  6  2  0  0  0
  5 10  1  0  0  0
  6 12  1  0  0  0
  7  8  1  0  0  0
  7 12  2  0  0  0
  8 10  2  0  0  0
  8 13  1  0  0  0
  9 11  2  0  0  0
  9 14  1  0  0  0
 10 15  1  0  0  0
 11 15  1  0  0  0
 12 16  1  0  0  0
 13 23  1  0  0  0
 13 14  2  0  0  0
 18 20  1  0  0  0
 18 23  1  0  0  0
 19 21  1  0  0  0
 19 23  1  0  0  0
 20 24  1  0  0  0
 21 24  1  0  0  0
 22 24  1  0  0  0
 14 17  1  0  0  0
 24 25  1  0  0  0
M  CHG 1  14   1
M  CHG 1  24   1
M  END
> <minimizedAffinity>
-7.85835

> <CNNscore>
0.3658508658

> <CNNaffinity>
6.0876836777

> <CNN_VS>
2.2271842957

> <CNNaffinity_variance>
0.1409790516

$$$$



 25 28  0  0  0  0  0  0  0  0999 V2000
    7.0774   -2.3511   57.4776 C   0  0  0  0  0  0  0  0  0  0  0  0
    6.6279   -3.3142   58.3746 C   0  0  0  0  0  0  0  0  0  0  0  0
    8.1989   -1.5784   57.7873 C   0  0  0  0  0  0  0  0  0  0  0  0
    7.3064   -3.5089   59.5742 C   0  0  0  0  0  0  0  0  0  0  0  0
    8.6175   -2.3253   63.2164 C   0  0  0  0  0  0  0  0  0  0  0  0
    8.6739   -1.3616   64.2179 C   0  0  0  0  0  0  0  0  0  0  0  0
    9.8774    0.0998   62.7182 C   0  0  0  0  0  0  0  0  0  0  0  0
    9.8416   -0.8629   61.6937 C   0  0  0  0  0  0  0  0  0  0  0  0
    8.8762   -1.7322   59.0077 C   0  0  0  0  0  0  0  0  0  0  0  0
    9.1806   -2.0629   61.9622 C   0  0  0  0  0  0  0  0  0  0  0  0
    8.4189   -2.7182   59.8884 C   0  0  0  0  0  0  0  0  0  0  0  0
    9.2990   -0.1450   63.9667 C   0  0  0  0  0  0  0  0  0  0  0  0
   10.4891   -0.5907   60.3938 C   0  0  0  0  0  0  0  0  0  0  0  0
    9.9849   -0.9601   59.2144 N   0  0  0  0  0  0  0  0  0  0  0  0
    9.1009   -3.0634   61.0297 O   0  0  0  0  0  0  0  0  0  0  0  0
    9.3644    1.0583   65.1959 Cl  0  0  0  0  0  0  0  0  0  0  0  0
   10.4387   -0.5702   58.3915 H   0  0  0  0  0  0  0  0  0  0  0  0
   11.7308    1.4541   59.8342 C   0  0  0  0  0  0  0  0  0  0  0  0
   12.8411   -0.3819   61.0720 C   0  0  0  0  0  0  0  0  0  0  0  0
   12.9301    1.5717   58.9052 C   0  0  0  0  0  0  0  0  0  0  0  0
   14.0530   -0.2845   60.1574 C   0  0  0  0  0  0  0  0  0  0  0  0
   15.4147    1.3271   58.8200 C   0  0  0  0  0  0  0  0  0  0  0  0
   11.6446    0.1184   60.4089 N   0  0  0  0  0  0  0  0  0  0  0  0
   14.1754    1.1364   59.6484 N   0  0  0  0  0  0  0  0  0  0  0  0
   14.2740    1.7498   60.4693 H   0  0  0  0  0  0  0  0  0  0  0  0
  1  2  1  0  0  0
  1  3  2  0  0  0
  2  4  2  0  0  0
  3  9  1  0  0  0
  4 11  1  0  0  0
  5  6  2  0  0  0
  5 10  1  0  0  0
  6 12  1  0  0  0
  7  8  1  0  0  0
  7 12  2  0  0  0
  8 10  2  0  0  0
  8 13  1  0  0  0
  9 11  2  0  0  0
  9 14  1  0  0  0
 10 15  1  0  0  0
 11 15  1  0  0  0
 12 16  1  0  0  0
 13 23  1  0  0  0
 13 14  2  0  0  0
 18 20  1  0  0  0
 18 23  1  0  0  0
 19 21  1  0  0  0
 19 23  1  0  0  0
 20 24  1  0  0  0
 21 24  1  0  0  0
 22 24  1  0  0  0
 14 17  1  0  0  0
 24 25  1  0  0  0
M  CHG 1  14   1
M  CHG 1  24   1
M  END
> <minimizedAffinity>
-8.65566

> <CNNscore>
0.3419950306

> <CNNaffinity>
5.9722828865

> <CNN_VS>
2.0424909592

> <CNNaffinity_variance>
0.1265764534

$$$$



 30 33  0  0  0  0  0  0  0  0999 V2000
   10.8883    0.7202   60.7631 C   0  0  0  0  0  0  0  0  0  0  0  0
   11.1689   -0.3345   61.5440 C   0  0  0  0  0  0  0  0  0  0  0  0
   11.8988    1.3155   59.8332 C   0  0  0  0  0  0  0  0  0  0  0  0
   12.5301   -0.9765   61.5652 C   0  0  0  0  0  0  0  0  0  0  0  0
   13.6241   -0.1043   60.9478 C   0  0  0  0  0  0  0  0  0  0  0  0
   13.1303    0.4521   59.6352 N   0  0  0  0  0  0  0  0  0  0  0  0
   12.8479   -0.3502   59.0552 H   0  0  0  0  0  0  0  0  0  0  0  0
    7.2223   -3.7128   62.0421 C   0  0  0  0  0  0  0  0  0  0  0  0
    7.9829   -3.4699   60.8800 C   0  0  0  0  0  0  0  0  0  0  0  0
    7.4833   -3.0226   63.2279 C   0  0  0  0  0  0  0  0  0  0  0  0
    9.0208   -2.5313   60.8788 C   0  0  0  0  0  0  0  0  0  0  0  0
    8.5101   -2.1039   63.2014 C   0  0  0  0  0  0  0  0  0  0  0  0
    9.2676   -1.8564   62.0582 C   0  0  0  0  0  0  0  0  0  0  0  0
   10.0543   -0.4992   63.7437 C   0  0  0  0  0  0  0  0  0  0  0  0
    8.9756   -1.2889   64.2303 N   0  0  0  0  0  0  0  0  0  0  0  0
   10.2232   -0.8723   62.3704 N   0  0  0  0  0  0  0  0  0  0  0  0
   10.6921    0.3239   64.3872 O   0  0  0  0  0  0  0  0  0  0  0  0
    8.6060   -1.2627   65.1726 H   0  0  0  0  0  0  0  0  0  0  0  0
   14.2081    1.1704   58.8755 C   0  0  0  0  0  0  0  0  0  0  0  0
   15.5651    0.7555   59.4234 C   0  0  0  0  0  0  0  0  0  0  0  0
   16.2033   -0.3255   58.5494 C   0  0  0  0  0  0  0  0  0  0  0  0
   17.1846    0.2546   57.5421 C   0  0  0  0  0  0  0  0  0  0  0  0
   16.8961    1.2107   56.8261 O   0  0  0  0  0  0  0  0  0  0  0  0
   19.3208   -0.1174   56.2956 C   0  0  0  0  0  0  0  0  0  0  0  0
   19.0251   -1.1779   58.4463 C   0  0  0  0  0  0  0  0  0  0  0  0
   20.5873   -0.6919   56.1865 C   0  0  0  0  0  0  0  0  0  0  0  0
   20.2915   -1.7524   58.3372 C   0  0  0  0  0  0  0  0  0  0  0  0
   18.5398   -0.3604   57.4256 C   0  0  0  0  0  0  0  0  0  0  0  0
   21.0726   -1.5093   57.2072 C   0  0  0  0  0  0  0  0  0  0  0  0
   22.2885   -2.0612   57.1024 F   0  0  0  0  0  0  0  0  0  0  0  0
  8  9  1  0  0  0
  8 10  2  0  0  0
  9 11  2  0  0  0
 24 26  2  0  0  0
 24 28  1  0  0  0
 25 27  1  0  0  0
 25 28  2  0  0  0
 10 12  1  0  0  0
 11 13  1  0  0  0
 26 29  1  0  0  0
 27 29  2  0  0  0
 28 22  1  0  0  0
 12 13  2  0  0  0
 12 15  1  0  0  0
 13 16  1  0  0  0
 29 30  1  0  0  0
  1  2  2  0  0  0
  1  3  1  0  0  0
  2  4  1  0  0  0
  2 16  1  0  0  0
 14 15  1  0  0  0
 14 16  1  0  0  0
 14 17  2  0  0  0
 22 21  1  0  0  0
 22 23  2  0  0  0
  3  6  1  0  0  0
  4  5  1  0  0  0
  5  6  1  0  0  0
 21 20  1  0  0  0
 20 19  1  0  0  0
 19  6  1  0  0  0
 15 18  1  0  0  0
  6  7  1  0  0  0
M  CHG 1   6   1
M  END
> <minimizedAffinity>
-10.08957

> <CNNscore>
0.6188112497

> <CNNaffinity>
6.5689744949

> <CNN_VS>
4.0649552345

> <CNNaffinity_variance>
0.0350725576

$$$$



 30 33  0  0  0  0  0  0  0  0999 V2000
   16.2375    1.3147   58.4526 C   0  0  0  0  0  0  0  0  0  0  0  0
   16.4713    0.3417   57.5585 C   0  0  0  0  0  0  0  0  0  0  0  0
   14.9324    1.4376   59.1751 C   0  0  0  0  0  0  0  0  0  0  0  0
   15.4270   -0.6789   57.1933 C   0  0  0  0  0  0  0  0  0  0  0  0
   14.0118   -0.2785   57.6122 C   0  0  0  0  0  0  0  0  0  0  0  0
   14.0402    0.2186   59.0365 N   0  0  0  0  0  0  0  0  0  0  0  0
   14.4576   -0.5291   59.6081 H   0  0  0  0  0  0  0  0  0  0  0  0
   21.2929   -1.6528   57.6584 C   0  0  0  0  0  0  0  0  0  0  0  0
   20.2856   -1.8328   58.6284 C   0  0  0  0  0  0  0  0  0  0  0  0
   21.0633   -0.8757   56.5209 C   0  0  0  0  0  0  0  0  0  0  0  0
   19.0270   -1.2391   58.4818 C   0  0  0  0  0  0  0  0  0  0  0  0
   19.8162   -0.3019   56.3993 C   0  0  0  0  0  0  0  0  0  0  0  0
   18.8140   -0.4735   57.3523 C   0  0  0  0  0  0  0  0  0  0  0  0
   17.9834    0.8693   55.6762 C   0  0  0  0  0  0  0  0  0  0  0  0
   19.3271    0.5092   55.3783 N   0  0  0  0  0  0  0  0  0  0  0  0
   17.6781    0.2389   56.9266 N   0  0  0  0  0  0  0  0  0  0  0  0
   17.2572    1.5748   54.9883 O   0  0  0  0  0  0  0  0  0  0  0  0
   19.8443    0.7961   54.5565 H   0  0  0  0  0  0  0  0  0  0  0  0
   12.6641    0.4597   59.5869 C   0  0  0  0  0  0  0  0  0  0  0  0
   12.4506   -0.4300   60.8021 C   0  0  0  0  0  0  0  0  0  0  0  0
   11.4485    0.1970   61.7728 C   0  0  0  0  0  0  0  0  0  0  0  0
   10.3277   -0.7630   62.1422 C   0  0  0  0  0  0  0  0  0  0  0  0
    9.9919   -1.6881   61.4064 O   0  0  0  0  0  0  0  0  0  0  0  0
    9.2112   -1.6794   64.1840 C   0  0  0  0  0  0  0  0  0  0  0  0
    9.3627    0.7167   63.9131 C   0  0  0  0  0  0  0  0  0  0  0  0
    8.5483   -1.5002   65.3982 C   0  0  0  0  0  0  0  0  0  0  0  0
    8.6998    0.8958   65.1273 C   0  0  0  0  0  0  0  0  0  0  0  0
    9.6184   -0.5709   63.4415 C   0  0  0  0  0  0  0  0  0  0  0  0
    8.2927   -0.2127   65.8698 C   0  0  0  0  0  0  0  0  0  0  0  0
    7.6560   -0.0405   67.0356 F   0  0  0  0  0  0  0  0  0  0  0  0
  8  9  1  0  0  0
  8 10  2  0  0  0
  9 11  2  0  0  0
 24 26  2  0  0  0
 24 28  1  0  0  0
 25 27  1  0  0  0
 25 28  2  0  0  0
 10 12  1  0  0  0
 11 13  1  0  0  0
 26 29  1  0  0  0
 27 29  2  0  0  0
 28 22  1  0  0  0
 12 13  2  0  0  0
 12 15  1  0  0  0
 13 16  1  0  0  0
 29 30  1  0  0  0
  1  2  2  0  0  0
  1  3  1  0  0  0
  2  4  1  0  0  0
  2 16  1  0  0  0
 14 15  1  0  0  0
 14 16  1  0  0  0
 14 17  2  0  0  0
 22 21  1  0  0  0
 22 23  2  0  0  0
  3  6  1  0  0  0
  4  5  1  0  0  0
  5  6  1  0  0  0
 21 20  1  0  0  0
 20 19  1  0  0  0
 19  6  1  0  0  0
 15 18  1  0  0  0
  6  7  1  0  0  0
M  CHG 1   6   1
M  END
> <minimizedAffinity>
-10.23747

> <CNNscore>
0.5843417048

> <CNNaffinity>
6.5137796402

> <CNN_VS>
3.8062729836

> <CNNaffinity_variance>
0.0229768921

$$$$



 30 33  0  0  0  0  0  0  0  0999 V2000
   14.2405   -0.3647   59.6399 C   0  0  0  0  0  0  0  0  0  0  0  0
   13.6154    0.0116   58.5136 C   0  0  0  0  0  0  0  0  0  0  0  0
   13.6623   -0.1093   60.9966 C   0  0  0  0  0  0  0  0  0  0  0  0
   12.3020    0.7463   58.5331 C   0  0  0  0  0  0  0  0  0  0  0  0
   11.9641    1.3530   59.8955 C   0  0  0  0  0  0  0  0  0  0  0  0
   12.2082    0.3220   60.9698 N   0  0  0  0  0  0  0  0  0  0  0  0
   11.6505   -0.5075   60.7233 H   0  0  0  0  0  0  0  0  0  0  0  0
   17.6566    0.7042   55.2847 C   0  0  0  0  0  0  0  0  0  0  0  0
   17.5237    1.2169   56.5913 C   0  0  0  0  0  0  0  0  0  0  0  0
   16.6508   -0.0802   54.7158 C   0  0  0  0  0  0  0  0  0  0  0  0
   16.3819    0.9563   57.3571 C   0  0  0  0  0  0  0  0  0  0  0  0
   15.5366   -0.3228   55.4897 C   0  0  0  0  0  0  0  0  0  0  0  0
   15.3956    0.1793   56.7820 C   0  0  0  0  0  0  0  0  0  0  0  0
   13.5082   -1.0404   56.2798 C   0  0  0  0  0  0  0  0  0  0  0  0
   14.4009   -1.0637   55.1723 N   0  0  0  0  0  0  0  0  0  0  0  0
   14.1545   -0.2505   57.2859 N   0  0  0  0  0  0  0  0  0  0  0  0
   12.4166   -1.5911   56.3368 O   0  0  0  0  0  0  0  0  0  0  0  0
   14.2371   -1.5418   54.2950 H   0  0  0  0  0  0  0  0  0  0  0  0
   11.7279    0.7748   62.3185 C   0  0  0  0  0  0  0  0  0  0  0  0
   10.7122    1.8924   62.1364 C   0  0  0  0  0  0  0  0  0  0  0  0
    9.2890    1.3860   62.3769 C   0  0  0  0  0  0  0  0  0  0  0  0
    9.2456   -0.1158   62.6153 C   0  0  0  0  0  0  0  0  0  0  0  0
    9.3619   -0.9258   61.6984 O   0  0  0  0  0  0  0  0  0  0  0  0
    8.4658    0.2054   64.9699 C   0  0  0  0  0  0  0  0  0  0  0  0
    9.4725   -1.9021   64.3515 C   0  0  0  0  0  0  0  0  0  0  0  0
    8.2896   -0.2610   66.2727 C   0  0  0  0  0  0  0  0  0  0  0  0
    9.2964   -2.3685   65.6543 C   0  0  0  0  0  0  0  0  0  0  0  0
    9.0572   -0.6152   64.0093 C   0  0  0  0  0  0  0  0  0  0  0  0
    8.7049   -1.5479   66.6148 C   0  0  0  0  0  0  0  0  0  0  0  0
    8.5359   -1.9958   67.8658 F   0  0  0  0  0  0  0  0  0  0  0  0
  8  9  1  0  0  0
  8 10  2  0  0  0
  9 11  2  0  0  0
 24 26  2  0  0  0
 24 28  1  0  0  0
 25 27  1  0  0  0
 25 28  2  0  0  0
 10 12  1  0  0  0
 11 13  1  0  0  0
 26 29  1  0  0  0
 27 29  2  0  0  0
 28 22  1  0  0  0
 12 13  2  0  0  0
 12 15  1  0  0  0
 13 16  1  0  0  0
 29 30  1  0  0  0
  1  2  2  0  0  0
  1  3  1  0  0  0
  2  4  1  0  0  0
  2 16  1  0  0  0
 14 15  1  0  0  0
 14 16  1  0  0  0
 14 17  2  0  0  0
 22 21  1  0  0  0
 22 23  2  0  0  0
  3  6  1  0  0  0
  4  5  1  0  0  0
  5  6  1  0  0  0
 21 20  1  0  0  0
 20 19  1  0  0  0
 19  6  1  0  0  0
 15 18  1  0  0  0
  6  7  1  0  0  0
M  CHG 1   6   1
M  END
> <minimizedAffinity>
-8.92808

> <CNNscore>
0.5232275128

> <CNNaffinity>
6.8182282448

> <CNN_VS>
3.5674846172

> <CNNaffinity_variance>
0.1765795350

$$$$



 30 33  0  0  0  0  0  0  0  0999 V2000
   16.0529    1.1490   58.3804 C   0  0  0  0  0  0  0  0  0  0  0  0
   16.3464    0.2726   57.4074 C   0  0  0  0  0  0  0  0  0  0  0  0
   14.7061    1.1963   59.0318 C   0  0  0  0  0  0  0  0  0  0  0  0
   15.3329   -0.7061   56.8778 C   0  0  0  0  0  0  0  0  0  0  0  0
   13.8925   -0.3516   57.2495 C   0  0  0  0  0  0  0  0  0  0  0  0
   13.8323   -0.0028   58.7162 N   0  0  0  0  0  0  0  0  0  0  0  0
   14.2199   -0.8047   59.2326 H   0  0  0  0  0  0  0  0  0  0  0  0
   21.2440   -1.4975   57.7479 C   0  0  0  0  0  0  0  0  0  0  0  0
   20.1948   -1.7392   58.6582 C   0  0  0  0  0  0  0  0  0  0  0  0
   21.0406   -0.7140   56.6098 C   0  0  0  0  0  0  0  0  0  0  0  0
   18.9195   -1.2023   58.4499 C   0  0  0  0  0  0  0  0  0  0  0  0
   19.7764   -0.1968   56.4269 C   0  0  0  0  0  0  0  0  0  0  0  0
   18.7327   -0.4297   57.3205 C   0  0  0  0  0  0  0  0  0  0  0  0
   17.9327    0.8994   55.6189 C   0  0  0  0  0  0  0  0  0  0  0  0
   19.3062    0.6067   55.3911 N   0  0  0  0  0  0  0  0  0  0  0  0
   17.5895    0.2359   56.8419 N   0  0  0  0  0  0  0  0  0  0  0  0
   17.2128    1.5812   54.9012 O   0  0  0  0  0  0  0  0  0  0  0  0
   19.8535    0.9302   54.6031 H   0  0  0  0  0  0  0  0  0  0  0  0
   12.4241    0.1797   59.2046 C   0  0  0  0  0  0  0  0  0  0  0  0
   11.4905    0.2789   58.0078 C   0  0  0  0  0  0  0  0  0  0  0  0
   10.4489   -0.8410   58.0292 C   0  0  0  0  0  0  0  0  0  0  0  0
    9.3263   -0.5634   59.0175 C   0  0  0  0  0  0  0  0  0  0  0  0
    8.5650    0.3926   58.8887 O   0  0  0  0  0  0  0  0  0  0  0  0
    9.3890   -1.0308   61.4737 C   0  0  0  0  0  0  0  0  0  0  0  0
    8.7400   -2.8028   59.9651 C   0  0  0  0  0  0  0  0  0  0  0  0
    9.2223   -1.8927   62.5578 C   0  0  0  0  0  0  0  0  0  0  0  0
    8.5733   -3.6647   61.0491 C   0  0  0  0  0  0  0  0  0  0  0  0
    9.1478   -1.4860   60.1774 C   0  0  0  0  0  0  0  0  0  0  0  0
    8.8145   -3.2096   62.3455 C   0  0  0  0  0  0  0  0  0  0  0  0
    8.6546   -4.0373   63.3864 F   0  0  0  0  0  0  0  0  0  0  0  0
  8  9  1  0  0  0
  8 10  2  0  0  0
  9 11  2  0  0  0
 24 26  2  0  0  0
 24 28  1  0  0  0
 25 27  1  0  0  0
 25 28  2  0  0  0
 10 12  1  0  0  0
 11 13  1  0  0  0
 26 29  1  0  0  0
 27 29  2  0  0  0
 28 22  1  0  0  0
 12 13  2  0  0  0
 12 15  1  0  0  0
 13 16  1  0  0  0
 29 30  1  0  0  0
  1  2  2  0  0  0
  1  3  1  0  0  0
  2  4  1  0  0  0
  2 16  1  0  0  0
 14 15  1  0  0  0
 14 16  1  0  0  0
 14 17  2  0  0  0
 22 21  1  0  0  0
 22 23  2  0  0  0
  3  6  1  0  0  0
  4  5  1  0  0  0
  5  6  1  0  0  0
 21 20  1  0  0  0
 20 19  1  0  0  0
 19  6  1  0  0  0
 15 18  1  0  0  0
  6  7  1  0  0  0
M  CHG 1   6   1
M  END
> <minimizedAffinity>
-10.00282

> <CNNscore>
0.5136373639

> <CNNaffinity>
6.5707635880

> <CNN_VS>
3.3749897480

> <CNNaffinity_variance>
0.1135792136

$$$$



 30 33  0  0  0  0  0  0  0  0999 V2000
   12.7278   -0.3631   61.9067 C   0  0  0  0  0  0  0  0  0  0  0  0
   11.5832    0.3058   62.1148 C   0  0  0  0  0  0  0  0  0  0  0  0
   13.5774   -0.1331   60.6961 C   0  0  0  0  0  0  0  0  0  0  0  0
   11.0536    1.3138   61.1305 C   0  0  0  0  0  0  0  0  0  0  0  0
   11.6993    1.2118   59.7480 C   0  0  0  0  0  0  0  0  0  0  0  0
   13.1959    1.1058   59.9083 N   0  0  0  0  0  0  0  0  0  0  0  0
   13.4980    1.9208   60.4600 H   0  0  0  0  0  0  0  0  0  0  0  0
    7.6531   -2.3423   64.3008 C   0  0  0  0  0  0  0  0  0  0  0  0
    8.1186   -2.4651   62.9757 C   0  0  0  0  0  0  0  0  0  0  0  0
    8.2467   -1.4432   65.1896 C   0  0  0  0  0  0  0  0  0  0  0  0
    9.1877   -1.6912   62.5107 C   0  0  0  0  0  0  0  0  0  0  0  0
    9.2975   -0.6927   64.7082 C   0  0  0  0  0  0  0  0  0  0  0  0
    9.7650   -0.8065   63.4003 C   0  0  0  0  0  0  0  0  0  0  0  0
   11.0372    0.7818   64.4777 C   0  0  0  0  0  0  0  0  0  0  0  0
   10.0589    0.2657   65.3725 N   0  0  0  0  0  0  0  0  0  0  0  0
   10.8350    0.0921   63.2378 N   0  0  0  0  0  0  0  0  0  0  0  0
   11.8705    1.6397   64.7383 O   0  0  0  0  0  0  0  0  0  0  0  0
    9.9361    0.5492   66.3367 H   0  0  0  0  0  0  0  0  0  0  0  0
   13.9200    1.1862   58.5954 C   0  0  0  0  0  0  0  0  0  0  0  0
   14.5957   -0.1478   58.3164 C   0  0  0  0  0  0  0  0  0  0  0  0
   15.9448    0.0537   57.6245 C   0  0  0  0  0  0  0  0  0  0  0  0
   17.1148   -0.1519   58.5747 C   0  0  0  0  0  0  0  0  0  0  0  0
   17.0105    0.0252   59.7863 O   0  0  0  0  0  0  0  0  0  0  0  0
   19.2552   -1.4345   58.7456 C   0  0  0  0  0  0  0  0  0  0  0  0
   18.8282   -0.1375   56.7524 C   0  0  0  0  0  0  0  0  0  0  0  0
   20.4825   -1.8384   58.2199 C   0  0  0  0  0  0  0  0  0  0  0  0
   20.0555   -0.5414   56.2267 C   0  0  0  0  0  0  0  0  0  0  0  0
   18.4281   -0.5840   58.0118 C   0  0  0  0  0  0  0  0  0  0  0  0
   20.8826   -1.3919   56.9605 C   0  0  0  0  0  0  0  0  0  0  0  0
   22.0611   -1.7796   56.4556 F   0  0  0  0  0  0  0  0  0  0  0  0
  8  9  1  0  0  0
  8 10  2  0  0  0
  9 11  2  0  0  0
 24 26  2  0  0  0
 24 28  1  0  0  0
 25 27  1  0  0  0
 25 28  2  0  0  0
 10 12  1  0  0  0
 11 13  1  0  0  0
 26 29  1  0  0  0
 27 29  2  0  0  0
 28 22  1  0  0  0
 12 13  2  0  0  0
 12 15  1  0  0  0
 13 16  1  0  0  0
 29 30  1  0  0  0
  1  2  2  0  0  0
  1  3  1  0  0  0
  2  4  1  0  0  0
  2 16  1  0  0  0
 14 15  1  0  0  0
 14 16  1  0  0  0
 14 17  2  0  0  0
 22 21  1  0  0  0
 22 23  2  0  0  0
  3  6  1  0  0  0
  4  5  1  0  0  0
  5  6  1  0  0  0
 21 20  1  0  0  0
 20 19  1  0  0  0
 19  6  1  0  0  0
 15 18  1  0  0  0
  6  7  1  0  0  0
M  CHG 1   6   1
M  END
> <minimizedAffinity>
-10.85102

> <CNNscore>
0.4648869336

> <CNNaffinity>
6.6239461899

> <CNN_VS>
3.0793859959

> <CNNaffinity_variance>
0.1183029413

$$$$



 30 33  0  0  0  0  0  0  0  0999 V2000
   15.3136   -0.2838   57.0197 C   0  0  0  0  0  0  0  0  0  0  0  0
   16.3764    0.4361   57.4110 C   0  0  0  0  0  0  0  0  0  0  0  0
   13.9623   -0.1134   57.6404 C   0  0  0  0  0  0  0  0  0  0  0  0
   16.2946    1.4456   58.5245 C   0  0  0  0  0  0  0  0  0  0  0  0
   15.0486    1.2895   59.3972 C   0  0  0  0  0  0  0  0  0  0  0  0
   13.8405    1.1245   58.5086 N   0  0  0  0  0  0  0  0  0  0  0  0
   13.8183    1.9370   57.8767 H   0  0  0  0  0  0  0  0  0  0  0  0
   21.1463   -1.6576   57.7278 C   0  0  0  0  0  0  0  0  0  0  0  0
   20.1121   -1.7678   58.6797 C   0  0  0  0  0  0  0  0  0  0  0  0
   20.9623   -0.9318   56.5489 C   0  0  0  0  0  0  0  0  0  0  0  0
   18.8716   -1.1542   58.4731 C   0  0  0  0  0  0  0  0  0  0  0  0
   19.7323   -0.3371   56.3685 C   0  0  0  0  0  0  0  0  0  0  0  0
   18.7037   -0.4398   57.3031 C   0  0  0  0  0  0  0  0  0  0  0  0
   17.9453    0.8380   55.5442 C   0  0  0  0  0  0  0  0  0  0  0  0
   19.2870    0.4341   55.2978 N   0  0  0  0  0  0  0  0  0  0  0  0
   17.5954    0.2761   56.8153 N   0  0  0  0  0  0  0  0  0  0  0  0
   17.2526    1.5251   54.8051 O   0  0  0  0  0  0  0  0  0  0  0  0
   19.8304    0.6692   54.4764 H   0  0  0  0  0  0  0  0  0  0  0  0
   12.5531    1.1486   59.2812 C   0  0  0  0  0  0  0  0  0  0  0  0
   11.9354   -0.2413   59.2639 C   0  0  0  0  0  0  0  0  0  0  0  0
   10.6703   -0.2910   60.1221 C   0  0  0  0  0  0  0  0  0  0  0  0
    9.4057   -0.1288   59.2922 C   0  0  0  0  0  0  0  0  0  0  0  0
    9.1467    0.9131   58.6943 O   0  0  0  0  0  0  0  0  0  0  0  0
    8.3977   -2.2155   60.2330 C   0  0  0  0  0  0  0  0  0  0  0  0
    7.6216   -1.4073   58.0925 C   0  0  0  0  0  0  0  0  0  0  0  0
    7.5086   -3.2872   60.1508 C   0  0  0  0  0  0  0  0  0  0  0  0
    6.7326   -2.4790   58.0102 C   0  0  0  0  0  0  0  0  0  0  0  0
    8.4542   -1.2755   59.2039 C   0  0  0  0  0  0  0  0  0  0  0  0
    6.6761   -3.4189   59.0395 C   0  0  0  0  0  0  0  0  0  0  0  0
    5.8224   -4.4480   58.9603 F   0  0  0  0  0  0  0  0  0  0  0  0
  8  9  1  0  0  0
  8 10  2  0  0  0
  9 11  2  0  0  0
 24 26  2  0  0  0
 24 28  1  0  0  0
 25 27  1  0  0  0
 25 28  2  0  0  0
 10 12  1  0  0  0
 11 13  1  0  0  0
 26 29  1  0  0  0
 27 29  2  0  0  0
 28 22  1  0  0  0
 12 13  2  0  0  0
 12 15  1  0  0  0
 13 16  1  0  0  0
 29 30  1  0  0  0
  1  2  2  0  0  0
  1  3  1  0  0  0
  2  4  1  0  0  0
  2 16  1  0  0  0
 14 15  1  0  0  0
 14 16  1  0  0  0
 14 17  2  0  0  0
 22 21  1  0  0  0
 22 23  2  0  0  0
  3  6  1  0  0  0
  4  5  1  0  0  0
  5  6  1  0  0  0
 21 20  1  0  0  0
 20 19  1  0  0  0
 19  6  1  0  0  0
 15 18  1  0  0  0
  6  7  1  0  0  0
M  CHG 1   6   1
M  END
> <minimizedAffinity>
-9.79747

> <CNNscore>
0.4561420083

> <CNNaffinity>
6.5172004700

> <CNN_VS>
2.9727690220

> <CNNaffinity_variance>
0.0192175135

$$$$



 30 33  0  0  0  0  0  0  0  0999 V2000
   13.0678    0.1255   60.2487 C   0  0  0  0  0  0  0  0  0  0  0  0
   12.0073    0.6766   59.6382 C   0  0  0  0  0  0  0  0  0  0  0  0
   14.2961   -0.2847   59.4982 C   0  0  0  0  0  0  0  0  0  0  0  0
   11.9629    0.8935   58.1495 C   0  0  0  0  0  0  0  0  0  0  0  0
   13.0194    0.0939   57.3860 C   0  0  0  0  0  0  0  0  0  0  0  0
   14.3511    0.2473   58.0787 N   0  0  0  0  0  0  0  0  0  0  0  0
   14.5438    1.2567   58.1405 H   0  0  0  0  0  0  0  0  0  0  0  0
    9.6170    0.7628   64.2766 C   0  0  0  0  0  0  0  0  0  0  0  0
   10.8755    0.1970   63.9869 C   0  0  0  0  0  0  0  0  0  0  0  0
    8.8629    1.3848   63.2791 C   0  0  0  0  0  0  0  0  0  0  0  0
   11.4069    0.2410   62.6931 C   0  0  0  0  0  0  0  0  0  0  0  0
    9.4076    1.4153   62.0136 C   0  0  0  0  0  0  0  0  0  0  0  0
   10.6504    0.8590   61.7169 C   0  0  0  0  0  0  0  0  0  0  0  0
    9.7910    1.7610   59.7804 C   0  0  0  0  0  0  0  0  0  0  0  0
    8.8755    1.9653   60.8500 N   0  0  0  0  0  0  0  0  0  0  0  0
   10.9052    1.0608   60.3482 N   0  0  0  0  0  0  0  0  0  0  0  0
    9.6355    2.1199   58.6206 O   0  0  0  0  0  0  0  0  0  0  0  0
    7.9815    2.4349   60.7771 H   0  0  0  0  0  0  0  0  0  0  0  0
   15.4790   -0.3559   57.2922 C   0  0  0  0  0  0  0  0  0  0  0  0
   15.5322    0.2947   55.9182 C   0  0  0  0  0  0  0  0  0  0  0  0
   16.9074    0.1084   55.2750 C   0  0  0  0  0  0  0  0  0  0  0  0
   18.0275    0.6643   56.1412 C   0  0  0  0  0  0  0  0  0  0  0  0
   18.1206    1.8624   56.3980 O   0  0  0  0  0  0  0  0  0  0  0  0
   18.8934   -0.7835   57.9877 C   0  0  0  0  0  0  0  0  0  0  0  0
   20.1376   -0.6607   55.9203 C   0  0  0  0  0  0  0  0  0  0  0  0
   19.8409   -1.6665   58.5056 C   0  0  0  0  0  0  0  0  0  0  0  0
   21.0852   -1.5437   56.4382 C   0  0  0  0  0  0  0  0  0  0  0  0
   19.0417   -0.2806   56.6951 C   0  0  0  0  0  0  0  0  0  0  0  0
   20.9368   -2.0466   57.7308 C   0  0  0  0  0  0  0  0  0  0  0  0
   21.8468   -2.8944   58.2281 F   0  0  0  0  0  0  0  0  0  0  0  0
  8  9  1  0  0  0
  8 10  2  0  0  0
  9 11  2  0  0  0
 24 26  2  0  0  0
 24 28  1  0  0  0
 25 27  1  0  0  0
 25 28  2  0  0  0
 10 12  1  0  0  0
 11 13  1  0  0  0
 26 29  1  0  0  0
 27 29  2  0  0  0
 28 22  1  0  0  0
 12 13  2  0  0  0
 12 15  1  0  0  0
 13 16  1  0  0  0
 29 30  1  0  0  0
  1  2  2  0  0  0
  1  3  1  0  0  0
  2  4  1  0  0  0
  2 16  1  0  0  0
 14 15  1  0  0  0
 14 16  1  0  0  0
 14 17  2  0  0  0
 22 21  1  0  0  0
 22 23  2  0  0  0
  3  6  1  0  0  0
  4  5  1  0  0  0
  5  6  1  0  0  0
 21 20  1  0  0  0
 20 19  1  0  0  0
 19  6  1  0  0  0
 15 18  1  0  0  0
  6  7  1  0  0  0
M  CHG 1   6   1
M  END
> <minimizedAffinity>
-10.16453

> <CNNscore>
0.4389660358

> <CNNaffinity>
6.6016755104

> <CNN_VS>
2.8979113102

> <CNNaffinity_variance>
0.1167463213

$$$$



 30 33  0  0  0  0  0  0  0  0999 V2000
   15.5451   -0.9475   58.5806 C   0  0  0  0  0  0  0  0  0  0  0  0
   16.5774   -0.0953   58.6749 C   0  0  0  0  0  0  0  0  0  0  0  0
   14.4820   -1.0322   59.6308 C   0  0  0  0  0  0  0  0  0  0  0  0
   16.7589    0.8158   59.8591 C   0  0  0  0  0  0  0  0  0  0  0  0
   15.9222    0.4100   61.0732 C   0  0  0  0  0  0  0  0  0  0  0  0
   14.5124    0.1133   60.6248 N   0  0  0  0  0  0  0  0  0  0  0  0
   14.1704    0.9506   60.1330 H   0  0  0  0  0  0  0  0  0  0  0  0
   21.3731   -1.4563   57.1307 C   0  0  0  0  0  0  0  0  0  0  0  0
   20.7527   -1.7936   58.3510 C   0  0  0  0  0  0  0  0  0  0  0  0
   20.7087   -0.6808   56.1780 C   0  0  0  0  0  0  0  0  0  0  0  0
   19.4544   -1.3623   58.6450 C   0  0  0  0  0  0  0  0  0  0  0  0
   19.4314   -0.2685   56.4907 C   0  0  0  0  0  0  0  0  0  0  0  0
   18.8094   -0.5962   57.6938 C   0  0  0  0  0  0  0  0  0  0  0  0
   17.3447    0.6792   56.4570 C   0  0  0  0  0  0  0  0  0  0  0  0
   18.5559    0.5039   55.7315 N   0  0  0  0  0  0  0  0  0  0  0  0
   17.5248   -0.0229   57.6933 N   0  0  0  0  0  0  0  0  0  0  0  0
   16.3635    1.3063   56.0799 O   0  0  0  0  0  0  0  0  0  0  0  0
   18.7499    0.8798   54.8115 H   0  0  0  0  0  0  0  0  0  0  0  0
   13.5799   -0.1151   61.7793 C   0  0  0  0  0  0  0  0  0  0  0  0
   12.2826   -0.7166   61.2606 C   0  0  0  0  0  0  0  0  0  0  0  0
   11.1572    0.3193   61.2630 C   0  0  0  0  0  0  0  0  0  0  0  0
   11.1810    1.1973   60.0209 C   0  0  0  0  0  0  0  0  0  0  0  0
   11.1637    2.4241   60.0886 O   0  0  0  0  0  0  0  0  0  0  0  0
   12.2178    0.8997   57.7644 C   0  0  0  0  0  0  0  0  0  0  0  0
   10.2843   -0.4280   58.3442 C   0  0  0  0  0  0  0  0  0  0  0  0
   12.2626    0.2875   56.5118 C   0  0  0  0  0  0  0  0  0  0  0  0
   10.3290   -1.0401   57.0916 C   0  0  0  0  0  0  0  0  0  0  0  0
   11.2287    0.5419   58.6806 C   0  0  0  0  0  0  0  0  0  0  0  0
   11.3183   -0.6824   56.1754 C   0  0  0  0  0  0  0  0  0  0  0  0
   11.3610   -1.2702   54.9726 F   0  0  0  0  0  0  0  0  0  0  0  0
  8  9  1  0  0  0
  8 10  2  0  0  0
  9 11  2  0  0  0
 24 26  2  0  0  0
 24 28  1  0  0  0
 25 27  1  0  0  0
 25 28  2  0  0  0
 10 12  1  0  0  0
 11 13  1  0  0  0
 26 29  1  0  0  0
 27 29  2  0  0  0
 28 22  1  0  0  0
 12 13  2  0  0  0
 12 15  1  0  0  0
 13 16  1  0  0  0
 29 30  1  0  0  0
  1  2  2  0  0  0
  1  3  1  0  0  0
  2  4  1  0  0  0
  2 16  1  0  0  0
 14 15  1  0  0  0
 14 16  1  0  0  0
 14 17  2  0  0  0
 22 21  1  0  0  0
 22 23  2  0  0  0
  3  6  1  0  0  0
  4  5  1  0  0  0
  5  6  1  0  0  0
 21 20  1  0  0  0
 20 19  1  0  0  0
 19  6  1  0  0  0
 15 18  1  0  0  0
  6  7  1  0  0  0
M  CHG 1   6   1
M  END
> <minimizedAffinity>
-8.77366

> <CNNscore>
0.4353068471

> <CNNaffinity>
7.0636148453

> <CNN_VS>
3.0748398304

> <CNNaffinity_variance>
0.0391407907

$$$$



 30 33  0  0  0  0  0  0  0  0999 V2000
   15.5405   -0.4537   57.0369 C   0  0  0  0  0  0  0  0  0  0  0  0
   16.5517    0.3260   57.4500 C   0  0  0  0  0  0  0  0  0  0  0  0
   14.1742   -0.3761   57.6432 C   0  0  0  0  0  0  0  0  0  0  0  0
   16.3943    1.3136   58.5748 C   0  0  0  0  0  0  0  0  0  0  0  0
   15.1507    1.0687   59.4304 C   0  0  0  0  0  0  0  0  0  0  0  0
   13.9654    0.8403   58.5252 N   0  0  0  0  0  0  0  0  0  0  0  0
   13.8996    1.6580   57.9032 H   0  0  0  0  0  0  0  0  0  0  0  0
   21.3715   -1.6620   57.6802 C   0  0  0  0  0  0  0  0  0  0  0  0
   20.3242   -1.8814   58.5982 C   0  0  0  0  0  0  0  0  0  0  0  0
   21.1883   -0.8417   56.5648 C   0  0  0  0  0  0  0  0  0  0  0  0
   19.0709   -1.2848   58.4206 C   0  0  0  0  0  0  0  0  0  0  0  0
   19.9456   -0.2659   56.4119 C   0  0  0  0  0  0  0  0  0  0  0  0
   18.9040   -0.4762   57.3134 C   0  0  0  0  0  0  0  0  0  0  0  0
   18.1415    0.9291   55.6564 C   0  0  0  0  0  0  0  0  0  0  0  0
   19.4980    0.5833   55.4029 N   0  0  0  0  0  0  0  0  0  0  0  0
   17.7849    0.2501   56.8671 N   0  0  0  0  0  0  0  0  0  0  0  0
   17.4431    1.6594   54.9657 O   0  0  0  0  0  0  0  0  0  0  0  0
   20.0490    0.9029   54.6159 H   0  0  0  0  0  0  0  0  0  0  0  0
   12.6704    0.7739   59.2824 C   0  0  0  0  0  0  0  0  0  0  0  0
   11.6355    0.0472   58.4370 C   0  0  0  0  0  0  0  0  0  0  0  0
   10.3311    0.8424   58.3617 C   0  0  0  0  0  0  0  0  0  0  0  0
    9.1976    0.1603   59.1127 C   0  0  0  0  0  0  0  0  0  0  0  0
    8.1495   -0.1634   58.5588 O   0  0  0  0  0  0  0  0  0  0  0  0
    9.3106   -1.4371   61.0340 C   0  0  0  0  0  0  0  0  0  0  0  0
    9.5919    0.9241   61.4617 C   0  0  0  0  0  0  0  0  0  0  0  0
    9.4722   -1.7027   62.3938 C   0  0  0  0  0  0  0  0  0  0  0  0
    9.7534    0.6586   62.8215 C   0  0  0  0  0  0  0  0  0  0  0  0
    9.3705   -0.1236   60.5680 C   0  0  0  0  0  0  0  0  0  0  0  0
    9.6936   -0.6549   63.2875 C   0  0  0  0  0  0  0  0  0  0  0  0
    9.8486   -0.9098   64.5934 F   0  0  0  0  0  0  0  0  0  0  0  0
  8  9  1  0  0  0
  8 10  2  0  0  0
  9 11  2  0  0  0
 24 26  2  0  0  0
 24 28  1  0  0  0
 25 27  1  0  0  0
 25 28  2  0  0  0
 10 12  1  0  0  0
 11 13  1  0  0  0
 26 29  1  0  0  0
 27 29  2  0  0  0
 28 22  1  0  0  0
 12 13  2  0  0  0
 12 15  1  0  0  0
 13 16  1  0  0  0
 29 30  1  0  0  0
  1  2  2  0  0  0
  1  3  1  0  0  0
  2  4  1  0  0  0
  2 16  1  0  0  0
 14 15  1  0  0  0
 14 16  1  0  0  0
 14 17  2  0  0  0
 22 21  1  0  0  0
 22 23  2  0  0  0
  3  6  1  0  0  0
  4  5  1  0  0  0
  5  6  1  0  0  0
 21 20  1  0  0  0
 20 19  1  0  0  0
 19  6  1  0  0  0
 15 18  1  0  0  0
  6  7  1  0  0  0
M  CHG 1   6   1
M  END
> <minimizedAffinity>
-9.68401

> <CNNscore>
0.4236010313

> <CNNaffinity>
6.6889319420

> <CNN_VS>
2.8334383965

> <CNNaffinity_variance>
0.1038917080

$$$$



 49 53  0  0  0  0  0  0  0  0999 V2000
   11.0507   -0.2528   62.0953 C   0  0  0  0  0  0  0  0  0  0  0  0
   10.6042   -0.2581   63.3662 C   0  0  0  0  0  0  0  0  0  0  0  0
   10.4004   -1.1873   61.1243 C   0  0  0  0  0  0  0  0  0  0  0  0
    9.0183   -1.8665   62.9845 C   0  0  0  0  0  0  0  0  0  0  0  0
    7.4419   -3.5367   61.2146 C   0  0  0  0  0  0  0  0  0  0  0  0
    7.5484   -3.9268   62.6771 C   0  0  0  0  0  0  0  0  0  0  0  0
    8.7595   -2.9488   60.7462 C   0  0  0  0  0  0  0  0  0  0  0  0
    7.8640   -2.7013   63.5119 C   0  0  0  0  0  0  0  0  0  0  0  0
   11.1576    0.6538   64.4295 C   0  0  0  0  0  0  0  0  0  0  0  0
    9.5915   -1.0636   63.8252 N   0  0  0  0  0  0  0  0  0  0  0  0
    9.3603   -1.9605   61.6474 N   0  0  0  0  0  0  0  0  0  0  0  0
   10.7989   -1.2436   59.9612 O   0  0  0  0  0  0  0  0  0  0  0  0
    6.7299   -1.8412   63.5323 O   0  0  0  0  0  0  0  0  0  0  0  0
    6.2341   -1.5463   64.7683 C   0  0  0  0  0  0  0  0  0  0  0  0
    6.8250   -1.6761   65.8326 O   0  0  0  0  0  0  0  0  0  0  0  0
    4.8213   -1.0275   64.6435 C   0  0  0  0  0  0  0  0  0  0  0  0
    3.8131   -2.1442   64.3780 C   0  0  0  0  0  0  0  0  0  0  0  0
    4.1043   -3.4710   65.0899 C   0  0  0  0  0  0  0  0  0  0  0  0
    3.8137   -4.7064   64.2352 C   0  0  0  0  0  0  0  0  0  0  0  0
    3.1530   -5.8088   65.0662 C   0  0  0  0  0  0  0  0  0  0  0  0
    2.5225   -5.3003   66.3667 C   0  0  0  0  0  0  0  0  0  0  0  0
    2.1353   -6.3764   67.3879 C   0  0  0  0  0  0  0  0  0  0  0  0
    2.8577   -7.7092   67.1800 C   0  0  0  0  0  0  0  0  0  0  0  0
    3.2284   -8.3547   68.5169 C   0  0  0  0  0  0  0  0  0  0  0  0
    2.6505   -7.5640   69.6931 C   0  0  0  0  0  0  0  0  0  0  0  0
    3.7486   -7.1466   70.6733 C   0  0  0  0  0  0  0  0  0  0  0  0
    4.2985   -8.3098   71.5055 C   0  0  0  0  0  0  0  0  0  0  0  0
    5.7075   -8.0558   72.0476 C   0  0  0  0  0  0  0  0  0  0  0  0
    8.0476   -7.2327   71.4375 C   0  0  0  0  0  0  0  0  0  0  0  0
    6.7536   -7.8631   70.9462 C   0  0  0  0  0  0  0  0  0  0  0  0
   12.1749    0.5795   61.5508 C   0  0  0  0  0  0  0  0  0  0  0  0
   11.9016    0.9777   60.1147 C   0  0  0  0  0  0  0  0  0  0  0  0
   15.6187    0.5330   59.3288 C   0  0  0  0  0  0  0  0  0  0  0  0
   14.2959    0.4650   57.1764 C   0  0  0  0  0  0  0  0  0  0  0  0
   14.3240    0.3856   60.1178 C   0  0  0  0  0  0  0  0  0  0  0  0
   13.0114    0.3177   57.9820 C   0  0  0  0  0  0  0  0  0  0  0  0
   15.5055   -0.1051   57.9348 C   0  0  0  0  0  0  0  0  0  0  0  0
   13.1667    0.9807   59.3379 N   0  0  0  0  0  0  0  0  0  0  0  0
   13.4147    1.9687   59.1539 H   0  0  0  0  0  0  0  0  0  0  0  0
   18.6414   -1.1998   58.4457 C   0  0  0  0  0  0  0  0  0  0  0  0
   20.0140   -1.4659   58.3400 C   0  0  0  0  0  0  0  0  0  0  0  0
   20.1816   -0.1814   56.2739 C   0  0  0  0  0  0  0  0  0  0  0  0
   18.0405   -0.4148   57.4507 C   0  0  0  0  0  0  0  0  0  0  0  0
   18.8183    0.0630   56.4104 C   0  0  0  0  0  0  0  0  0  0  0  0
   20.7676   -0.9652   57.2733 C   0  0  0  0  0  0  0  0  0  0  0  0
   16.7565    0.0854   57.1601 C   0  0  0  0  0  0  0  0  0  0  0  0
   16.7348    0.8115   56.0384 N   0  0  0  0  0  0  0  0  0  0  0  0
   18.0415    0.7956   55.5663 O   0  0  0  0  0  0  0  0  0  0  0  0
   22.0780   -1.2400   57.2081 F   0  0  0  0  0  0  0  0  0  0  0  0
 40 41  2  0  0  0
 40 43  1  0  0  0
 41 45  1  0  0  0
 42 44  1  0  0  0
 42 45  2  0  0  0
 43 44  2  0  0  0
 43 46  1  0  0  0
 44 48  1  0  0  0
 45 49  1  0  0  0
 46 37  1  0  0  0
 46 47  2  0  0  0
  1  2  2  0  0  0
  1  3  1  0  0  0
  1 31  1  0  0  0
  2  9  1  0  0  0
  2 10  1  0  0  0
  3 11  1  0  0  0
  3 12  2  0  0  0
  4  8  1  0  0  0
  4 10  2  0  0  0
  4 11  1  0  0  0
 14 16  1  0  0  0
 14 15  2  0  0  0
 14 13  1  0  0  0
  5  6  1  0  0  0
  5  7  1  0  0  0
  6  8  1  0  0  0
 33 35  1  0  0  0
 33 37  1  0  0  0
 34 36  1  0  0  0
 34 37  1  0  0  0
  7 11  1  0  0  0
 35 38  1  0  0  0
 36 38  1  0  0  0
  8 13  1  0  0  0
 29 30  1  0  0  0
 31 32  1  0  0  0
 16 17  1  0  0  0
 30 28  1  0  0  0
 17 18  1  0  0  0
 28 27  1  0  0  0
 18 19  1  0  0  0
 27 26  1  0  0  0
 19 20  1  0  0  0
 26 25  1  0  0  0
 20 21  1  0  0  0
 25 24  1  0  0  0
 21 22  1  0  0  0
 24 23  1  0  0  0
 22 23  1  0  0  0
 32 38  1  0  0  0
 47 48  1  0  0  0
 38 39  1  0  0  0
M  CHG 1  38   1
M  END
> <minimizedAffinity>
-9.20864

> <CNNscore>
0.6169698834

> <CNNaffinity>
7.6112012863

> <CNN_VS>
4.6958818436

> <CNNaffinity_variance>
0.1575477570

$$$$



 49 53  0  0  0  0  0  0  0  0999 V2000
   10.6159    0.5574   61.2388 C   0  0  0  0  0  0  0  0  0  0  0  0
   10.8849    0.6938   62.5517 C   0  0  0  0  0  0  0  0  0  0  0  0
    9.7327   -0.5766   60.8226 C   0  0  0  0  0  0  0  0  0  0  0  0
    9.6253   -1.1156   63.1741 C   0  0  0  0  0  0  0  0  0  0  0  0
    7.6795   -3.1921   62.6182 C   0  0  0  0  0  0  0  0  0  0  0  0
    8.5783   -3.3454   63.8311 C   0  0  0  0  0  0  0  0  0  0  0  0
    8.4546   -2.5418   61.4879 C   0  0  0  0  0  0  0  0  0  0  0  0
    9.0602   -1.9820   64.2865 C   0  0  0  0  0  0  0  0  0  0  0  0
   11.7370    1.8088   63.0987 C   0  0  0  0  0  0  0  0  0  0  0  0
   10.3996   -0.1388   63.5297 N   0  0  0  0  0  0  0  0  0  0  0  0
    9.2514   -1.3707   61.8670 N   0  0  0  0  0  0  0  0  0  0  0  0
    9.4884   -0.7626   59.6308 O   0  0  0  0  0  0  0  0  0  0  0  0
    7.9663   -1.2563   64.8372 O   0  0  0  0  0  0  0  0  0  0  0  0
    8.2257   -0.5861   65.9965 C   0  0  0  0  0  0  0  0  0  0  0  0
    8.5025    0.6021   66.0968 O   0  0  0  0  0  0  0  0  0  0  0  0
    8.1253   -1.5326   67.1691 C   0  0  0  0  0  0  0  0  0  0  0  0
    9.4648   -2.1855   67.5058 C   0  0  0  0  0  0  0  0  0  0  0  0
    9.3985   -3.3220   68.5333 C   0  0  0  0  0  0  0  0  0  0  0  0
    8.5361   -2.9992   69.7554 C   0  0  0  0  0  0  0  0  0  0  0  0
    8.5245   -4.1659   70.7458 C   0  0  0  0  0  0  0  0  0  0  0  0
    9.4678   -5.3087   70.3564 C   0  0  0  0  0  0  0  0  0  0  0  0
    9.5058   -6.5020   71.3183 C   0  0  0  0  0  0  0  0  0  0  0  0
    8.1219   -7.0528   71.6691 C   0  0  0  0  0  0  0  0  0  0  0  0
    8.0527   -8.5650   71.4454 C   0  0  0  0  0  0  0  0  0  0  0  0
    7.0149   -8.9203   70.3781 C   0  0  0  0  0  0  0  0  0  0  0  0
    5.7115   -9.4088   71.0133 C   0  0  0  0  0  0  0  0  0  0  0  0
    4.7212   -8.2803   71.3196 C   0  0  0  0  0  0  0  0  0  0  0  0
    4.0377   -7.7167   70.0710 C   0  0  0  0  0  0  0  0  0  0  0  0
    2.8225   -8.2514   67.8885 C   0  0  0  0  0  0  0  0  0  0  0  0
    3.5090   -8.8019   69.1291 C   0  0  0  0  0  0  0  0  0  0  0  0
   11.1474    1.4156   60.1280 C   0  0  0  0  0  0  0  0  0  0  0  0
   11.1962    0.6406   58.8270 C   0  0  0  0  0  0  0  0  0  0  0  0
   14.9900    1.0921   58.6382 C   0  0  0  0  0  0  0  0  0  0  0  0
   14.2116   -0.2719   56.6581 C   0  0  0  0  0  0  0  0  0  0  0  0
   13.6321    0.8904   59.2986 C   0  0  0  0  0  0  0  0  0  0  0  0
   12.8599   -0.4634   57.3339 C   0  0  0  0  0  0  0  0  0  0  0  0
   15.3334   -0.0675   57.6891 C   0  0  0  0  0  0  0  0  0  0  0  0
   12.5584    0.7147   58.2413 N   0  0  0  0  0  0  0  0  0  0  0  0
   12.5934    1.5600   57.6449 H   0  0  0  0  0  0  0  0  0  0  0  0
   18.4337   -1.1600   58.3876 C   0  0  0  0  0  0  0  0  0  0  0  0
   19.8129   -1.4119   58.3738 C   0  0  0  0  0  0  0  0  0  0  0  0
   20.1203   -0.0429   56.3793 C   0  0  0  0  0  0  0  0  0  0  0  0
   17.9004   -0.3393   57.3830 C   0  0  0  0  0  0  0  0  0  0  0  0
   18.7482    0.1861   56.4237 C   0  0  0  0  0  0  0  0  0  0  0  0
   20.6385   -0.8628   57.3872 C   0  0  0  0  0  0  0  0  0  0  0  0
   16.6364    0.1634   57.0180 C   0  0  0  0  0  0  0  0  0  0  0  0
   16.6906    0.9345   55.9279 N   0  0  0  0  0  0  0  0  0  0  0  0
   18.0288    0.9472   55.5542 O   0  0  0  0  0  0  0  0  0  0  0  0
   21.9527   -1.1255   57.4087 F   0  0  0  0  0  0  0  0  0  0  0  0
 40 41  2  0  0  0
 40 43  1  0  0  0
 41 45  1  0  0  0
 42 44  1  0  0  0
 42 45  2  0  0  0
 43 44  2  0  0  0
 43 46  1  0  0  0
 44 48  1  0  0  0
 45 49  1  0  0  0
 46 37  1  0  0  0
 46 47  2  0  0  0
  1  2  2  0  0  0
  1  3  1  0  0  0
  1 31  1  0  0  0
  2  9  1  0  0  0
  2 10  1  0  0  0
  3 11  1  0  0  0
  3 12  2  0  0  0
  4  8  1  0  0  0
  4 10  2  0  0  0
  4 11  1  0  0  0
 14 16  1  0  0  0
 14 15  2  0  0  0
 14 13  1  0  0  0
  5  6  1  0  0  0
  5  7  1  0  0  0
  6  8  1  0  0  0
 33 35  1  0  0  0
 33 37  1  0  0  0
 34 36  1  0  0  0
 34 37  1  0  0  0
  7 11  1  0  0  0
 35 38  1  0  0  0
 36 38  1  0  0  0
  8 13  1  0  0  0
 29 30  1  0  0  0
 31 32  1  0  0  0
 16 17  1  0  0  0
 30 28  1  0  0  0
 17 18  1  0  0  0
 28 27  1  0  0  0
 18 19  1  0  0  0
 27 26  1  0  0  0
 19 20  1  0  0  0
 26 25  1  0  0  0
 20 21  1  0  0  0
 25 24  1  0  0  0
 21 22  1  0  0  0
 24 23  1  0  0  0
 22 23  1  0  0  0
 32 38  1  0  0  0
 47 48  1  0  0  0
 38 39  1  0  0  0
M  CHG 1  38   1
M  END
> <minimizedAffinity>
-7.86317

> <CNNscore>
0.4834190309

> <CNNaffinity>
7.5993614197

> <CNN_VS>
3.6736760139

> <CNNaffinity_variance>
0.4553779662

$$$$



 49 53  0  0  0  0  0  0  0  0999 V2000
   10.5236    1.2252   62.0725 C   0  0  0  0  0  0  0  0  0  0  0  0
    9.2708    1.7194   62.0991 C   0  0  0  0  0  0  0  0  0  0  0  0
   10.9464    0.3371   63.2002 C   0  0  0  0  0  0  0  0  0  0  0  0
    8.7180    0.6814   64.0649 C   0  0  0  0  0  0  0  0  0  0  0  0
    9.2351   -1.2304   66.1827 C   0  0  0  0  0  0  0  0  0  0  0  0
    8.2306   -0.1214   66.4351 C   0  0  0  0  0  0  0  0  0  0  0  0
   10.3719   -0.7040   65.3273 C   0  0  0  0  0  0  0  0  0  0  0  0
    7.6668    0.3685   65.1158 C   0  0  0  0  0  0  0  0  0  0  0  0
    8.7181    2.6015   61.0103 C   0  0  0  0  0  0  0  0  0  0  0  0
    8.3591    1.4591   63.0921 N   0  0  0  0  0  0  0  0  0  0  0  0
    9.9649    0.0907   64.1642 N   0  0  0  0  0  0  0  0  0  0  0  0
   12.0929   -0.1088   63.2375 O   0  0  0  0  0  0  0  0  0  0  0  0
    6.8350   -0.6419   64.5557 O   0  0  0  0  0  0  0  0  0  0  0  0
    5.4921   -0.4383   64.6811 C   0  0  0  0  0  0  0  0  0  0  0  0
    4.9251    0.6465   64.6966 O   0  0  0  0  0  0  0  0  0  0  0  0
    4.7819   -1.7655   64.8040 C   0  0  0  0  0  0  0  0  0  0  0  0
    5.5506   -2.9010   64.1305 C   0  0  0  0  0  0  0  0  0  0  0  0
    4.7214   -3.7846   63.1904 C   0  0  0  0  0  0  0  0  0  0  0  0
    3.2881   -3.2906   62.9840 C   0  0  0  0  0  0  0  0  0  0  0  0
    2.3015   -4.4601   62.9480 C   0  0  0  0  0  0  0  0  0  0  0  0
    2.9373   -5.8083   63.3023 C   0  0  0  0  0  0  0  0  0  0  0  0
    2.2700   -6.5830   64.4446 C   0  0  0  0  0  0  0  0  0  0  0  0
    2.9852   -6.4330   65.7891 C   0  0  0  0  0  0  0  0  0  0  0  0
    2.1640   -5.5863   66.7638 C   0  0  0  0  0  0  0  0  0  0  0  0
    2.1340   -6.2185   68.1574 C   0  0  0  0  0  0  0  0  0  0  0  0
    2.6096   -7.6722   68.1169 C   0  0  0  0  0  0  0  0  0  0  0  0
    3.0162   -8.2199   69.4890 C   0  0  0  0  0  0  0  0  0  0  0  0
    3.1649   -9.7434   69.5149 C   0  0  0  0  0  0  0  0  0  0  0  0
    5.1375  -10.0769   71.1034 C   0  0  0  0  0  0  0  0  0  0  0  0
    3.6494  -10.2810   70.8642 C   0  0  0  0  0  0  0  0  0  0  0  0
   11.5688    1.5057   61.0324 C   0  0  0  0  0  0  0  0  0  0  0  0
   11.7769    0.2985   60.1408 C   0  0  0  0  0  0  0  0  0  0  0  0
   15.5353    0.1932   59.4369 C   0  0  0  0  0  0  0  0  0  0  0  0
   14.2724    0.0704   57.2513 C   0  0  0  0  0  0  0  0  0  0  0  0
   14.2405   -0.0850   60.1896 C   0  0  0  0  0  0  0  0  0  0  0  0
   12.9873   -0.2073   58.0207 C   0  0  0  0  0  0  0  0  0  0  0  0
   15.5089   -0.4147   58.0251 C   0  0  0  0  0  0  0  0  0  0  0  0
   13.0544    0.4300   59.3960 N   0  0  0  0  0  0  0  0  0  0  0  0
   13.2208    1.4401   59.2428 H   0  0  0  0  0  0  0  0  0  0  0  0
   18.6951   -1.3707   58.5024 C   0  0  0  0  0  0  0  0  0  0  0  0
   20.0816   -1.5521   58.3988 C   0  0  0  0  0  0  0  0  0  0  0  0
   20.2010   -0.1079   56.4375 C   0  0  0  0  0  0  0  0  0  0  0  0
   18.0628   -0.5471   57.5595 C   0  0  0  0  0  0  0  0  0  0  0  0
   18.8246    0.0500   56.5703 C   0  0  0  0  0  0  0  0  0  0  0  0
   20.8183   -0.9316   57.3846 C   0  0  0  0  0  0  0  0  0  0  0  0
   16.7562   -0.0977   57.2868 C   0  0  0  0  0  0  0  0  0  0  0  0
   16.7069    0.7087   56.2223 N   0  0  0  0  0  0  0  0  0  0  0  0
   18.0179    0.8005   55.7711 O   0  0  0  0  0  0  0  0  0  0  0  0
   22.1427   -1.1282   57.3198 F   0  0  0  0  0  0  0  0  0  0  0  0
 40 41  2  0  0  0
 40 43  1  0  0  0
 41 45  1  0  0  0
 42 44  1  0  0  0
 42 45  2  0  0  0
 43 44  2  0  0  0
 43 46  1  0  0  0
 44 48  1  0  0  0
 45 49  1  0  0  0
 46 37  1  0  0  0
 46 47  2  0  0  0
  1  2  2  0  0  0
  1  3  1  0  0  0
  1 31  1  0  0  0
  2  9  1  0  0  0
  2 10  1  0  0  0
  3 11  1  0  0  0
  3 12  2  0  0  0
  4  8  1  0  0  0
  4 10  2  0  0  0
  4 11  1  0  0  0
 14 16  1  0  0  0
 14 15  2  0  0  0
 14 13  1  0  0  0
  5  6  1  0  0  0
  5  7  1  0  0  0
  6  8  1  0  0  0
 33 35  1  0  0  0
 33 37  1  0  0  0
 34 36  1  0  0  0
 34 37  1  0  0  0
  7 11  1  0  0  0
 35 38  1  0  0  0
 36 38  1  0  0  0
  8 13  1  0  0  0
 29 30  1  0  0  0
 31 32  1  0  0  0
 16 17  1  0  0  0
 30 28  1  0  0  0
 17 18  1  0  0  0
 28 27  1  0  0  0
 18 19  1  0  0  0
 27 26  1  0  0  0
 19 20  1  0  0  0
 26 25  1  0  0  0
 20 21  1  0  0  0
 25 24  1  0  0  0
 21 22  1  0  0  0
 24 23  1  0  0  0
 22 23  1  0  0  0
 32 38  1  0  0  0
 47 48  1  0  0  0
 38 39  1  0  0  0
M  CHG 1  38   1
M  END
> <minimizedAffinity>
-8.02427

> <CNNscore>
0.4150801301

> <CNNaffinity>
7.5026421547

> <CNN_VS>
3.1141977310

> <CNNaffinity_variance>
0.2193279564

$$$$



 49 53  0  0  0  0  0  0  0  0999 V2000
   10.5342    0.2336   60.0965 C   0  0  0  0  0  0  0  0  0  0  0  0
   10.7199   -0.6881   61.0612 C   0  0  0  0  0  0  0  0  0  0  0  0
    9.4395   -0.0064   59.1049 C   0  0  0  0  0  0  0  0  0  0  0  0
    9.0128   -2.0359   60.3423 C   0  0  0  0  0  0  0  0  0  0  0  0
    6.6738   -2.5508   58.7079 C   0  0  0  0  0  0  0  0  0  0  0  0
    7.4063   -3.7307   59.3192 C   0  0  0  0  0  0  0  0  0  0  0  0
    7.6731   -1.4827   58.3057 C   0  0  0  0  0  0  0  0  0  0  0  0
    8.1654   -3.2792   60.5514 C   0  0  0  0  0  0  0  0  0  0  0  0
   11.7693   -0.5481   62.1326 C   0  0  0  0  0  0  0  0  0  0  0  0
    9.9690   -1.8300   61.1927 N   0  0  0  0  0  0  0  0  0  0  0  0
    8.6962   -1.1723   59.3091 N   0  0  0  0  0  0  0  0  0  0  0  0
    9.2556    0.7897   58.1846 O   0  0  0  0  0  0  0  0  0  0  0  0
    7.2389   -2.9583   61.5834 O   0  0  0  0  0  0  0  0  0  0  0  0
    7.0923   -3.8998   62.5594 C   0  0  0  0  0  0  0  0  0  0  0  0
    6.2342   -4.7721   62.5976 O   0  0  0  0  0  0  0  0  0  0  0  0
    8.1568   -3.7142   63.6145 C   0  0  0  0  0  0  0  0  0  0  0  0
    8.0699   -2.3490   64.2945 C   0  0  0  0  0  0  0  0  0  0  0  0
    9.3773   -1.8440   64.9170 C   0  0  0  0  0  0  0  0  0  0  0  0
    9.1995   -1.2163   66.3011 C   0  0  0  0  0  0  0  0  0  0  0  0
    9.7132   -2.1495   67.3999 C   0  0  0  0  0  0  0  0  0  0  0  0
    8.6418   -2.5365   68.4245 C   0  0  0  0  0  0  0  0  0  0  0  0
    8.9533   -3.7656   69.2863 C   0  0  0  0  0  0  0  0  0  0  0  0
    8.5272   -3.6151   70.7483 C   0  0  0  0  0  0  0  0  0  0  0  0
    9.2782   -4.5972   71.6499 C   0  0  0  0  0  0  0  0  0  0  0  0
    9.5337   -5.9244   70.9316 C   0  0  0  0  0  0  0  0  0  0  0  0
    9.4931   -7.1005   71.9094 C   0  0  0  0  0  0  0  0  0  0  0  0
    8.1367   -7.8121   71.9525 C   0  0  0  0  0  0  0  0  0  0  0  0
    7.8050   -8.5654   70.6616 C   0  0  0  0  0  0  0  0  0  0  0  0
    5.4298   -7.6746   70.9625 C   0  0  0  0  0  0  0  0  0  0  0  0
    6.3062   -8.8192   70.4776 C   0  0  0  0  0  0  0  0  0  0  0  0
   11.3468    1.4780   59.8866 C   0  0  0  0  0  0  0  0  0  0  0  0
   11.4274    1.8248   58.4140 C   0  0  0  0  0  0  0  0  0  0  0  0
   15.2316    1.4354   58.5060 C   0  0  0  0  0  0  0  0  0  0  0  0
   14.3433    0.4537   56.3533 C   0  0  0  0  0  0  0  0  0  0  0  0
   13.8125    1.4850   59.0576 C   0  0  0  0  0  0  0  0  0  0  0  0
   12.9311    0.5105   56.9215 C   0  0  0  0  0  0  0  0  0  0  0  0
   15.3940    0.3142   57.4668 C   0  0  0  0  0  0  0  0  0  0  0  0
   12.8170    1.6439   57.9238 N   0  0  0  0  0  0  0  0  0  0  0  0
   13.0825    2.5081   57.4198 H   0  0  0  0  0  0  0  0  0  0  0  0
   18.2445   -1.1020   58.5447 C   0  0  0  0  0  0  0  0  0  0  0  0
   19.5718   -1.5325   58.6823 C   0  0  0  0  0  0  0  0  0  0  0  0
   20.2286   -0.4159   56.6163 C   0  0  0  0  0  0  0  0  0  0  0  0
   17.9145   -0.3200   57.4281 C   0  0  0  0  0  0  0  0  0  0  0  0
   18.9028   -0.0059   56.5115 C   0  0  0  0  0  0  0  0  0  0  0  0
   20.5436   -1.1948   57.7346 C   0  0  0  0  0  0  0  0  0  0  0  0
   16.7669    0.3061   56.9041 C   0  0  0  0  0  0  0  0  0  0  0  0
   17.0167    0.9538   55.7623 N   0  0  0  0  0  0  0  0  0  0  0  0
   18.3697    0.7547   55.5165 O   0  0  0  0  0  0  0  0  0  0  0  0
   21.8023   -1.6240   57.9021 F   0  0  0  0  0  0  0  0  0  0  0  0
 40 41  2  0  0  0
 40 43  1  0  0  0
 41 45  1  0  0  0
 42 44  1  0  0  0
 42 45  2  0  0  0
 43 44  2  0  0  0
 43 46  1  0  0  0
 44 48  1  0  0  0
 45 49  1  0  0  0
 46 37  1  0  0  0
 46 47  2  0  0  0
  1  2  2  0  0  0
  1  3  1  0  0  0
  1 31  1  0  0  0
  2  9  1  0  0  0
  2 10  1  0  0  0
  3 11  1  0  0  0
  3 12  2  0  0  0
  4  8  1  0  0  0
  4 10  2  0  0  0
  4 11  1  0  0  0
 14 16  1  0  0  0
 14 15  2  0  0  0
 14 13  1  0  0  0
  5  6  1  0  0  0
  5  7  1  0  0  0
  6  8  1  0  0  0
 33 35  1  0  0  0
 33 37  1  0  0  0
 34 36  1  0  0  0
 34 37  1  0  0  0
  7 11  1  0  0  0
 35 38  1  0  0  0
 36 38  1  0  0  0
  8 13  1  0  0  0
 29 30  1  0  0  0
 31 32  1  0  0  0
 16 17  1  0  0  0
 30 28  1  0  0  0
 17 18  1  0  0  0
 28 27  1  0  0  0
 18 19  1  0  0  0
 27 26  1  0  0  0
 19 20  1  0  0  0
 26 25  1  0  0  0
 20 21  1  0  0  0
 25 24  1  0  0  0
 21 22  1  0  0  0
 24 23  1  0  0  0
 22 23  1  0  0  0
 32 38  1  0  0  0
 47 48  1  0  0  0
 38 39  1  0  0  0
M  CHG 1  38   1
M  END
> <minimizedAffinity>
-8.64935

> <CNNscore>
0.4041042328

> <CNNaffinity>
7.5351457596

> <CNN_VS>
3.0449843407

> <CNNaffinity_variance>
0.1310380995

$$$$



 49 53  0  0  0  0  0  0  0  0999 V2000
   10.5473    0.9200   62.3608 C   0  0  0  0  0  0  0  0  0  0  0  0
    9.3371    1.4642   62.1287 C   0  0  0  0  0  0  0  0  0  0  0  0
   10.7601    0.2263   63.6695 C   0  0  0  0  0  0  0  0  0  0  0  0
    8.4658    0.8116   64.1442 C   0  0  0  0  0  0  0  0  0  0  0  0
    8.5752   -0.7195   66.6042 C   0  0  0  0  0  0  0  0  0  0  0  0
    7.6219    0.4584   66.5240 C   0  0  0  0  0  0  0  0  0  0  0  0
    9.8460   -0.4001   65.8398 C   0  0  0  0  0  0  0  0  0  0  0  0
    7.2683    0.7328   65.0755 C   0  0  0  0  0  0  0  0  0  0  0  0
    8.9905    2.1644   60.8410 C   0  0  0  0  0  0  0  0  0  0  0  0
    8.2887    1.4211   63.0142 N   0  0  0  0  0  0  0  0  0  0  0  0
    9.6473    0.1948   64.5145 N   0  0  0  0  0  0  0  0  0  0  0  0
   11.8600   -0.2546   63.9409 O   0  0  0  0  0  0  0  0  0  0  0  0
    6.4516   -0.3238   64.5824 O   0  0  0  0  0  0  0  0  0  0  0  0
    5.1057   -0.1190   64.6671 C   0  0  0  0  0  0  0  0  0  0  0  0
    4.5495    0.9558   64.8513 O   0  0  0  0  0  0  0  0  0  0  0  0
    4.3763   -1.4310   64.5014 C   0  0  0  0  0  0  0  0  0  0  0  0
    5.3186   -2.6320   64.5621 C   0  0  0  0  0  0  0  0  0  0  0  0
    5.1923   -3.6218   63.3975 C   0  0  0  0  0  0  0  0  0  0  0  0
    6.3705   -3.5804   62.4221 C   0  0  0  0  0  0  0  0  0  0  0  0
    7.5830   -2.8901   63.0510 C   0  0  0  0  0  0  0  0  0  0  0  0
    8.7342   -2.6587   62.0669 C   0  0  0  0  0  0  0  0  0  0  0  0
    8.7678   -3.5861   60.8466 C   0  0  0  0  0  0  0  0  0  0  0  0
    8.8826   -2.8437   59.5134 C   0  0  0  0  0  0  0  0  0  0  0  0
    8.6999   -1.3359   59.6996 C   0  0  0  0  0  0  0  0  0  0  0  0
    9.1781   -0.5637   58.4677 C   0  0  0  0  0  0  0  0  0  0  0  0
   10.3576   -1.2688   57.7949 C   0  0  0  0  0  0  0  0  0  0  0  0
   11.1199   -0.3775   56.8087 C   0  0  0  0  0  0  0  0  0  0  0  0
   11.7553   -1.1554   55.6533 C   0  0  0  0  0  0  0  0  0  0  0  0
   14.1734   -0.6349   55.0150 C   0  0  0  0  0  0  0  0  0  0  0  0
   13.2374   -1.4677   55.8773 C   0  0  0  0  0  0  0  0  0  0  0  0
   11.7354    0.9691   61.4447 C   0  0  0  0  0  0  0  0  0  0  0  0
   12.0813   -0.4167   60.9392 C   0  0  0  0  0  0  0  0  0  0  0  0
   14.4831    1.0003   58.3208 C   0  0  0  0  0  0  0  0  0  0  0  0
   15.6532   -0.8164   59.6313 C   0  0  0  0  0  0  0  0  0  0  0  0
   13.3706    1.0208   59.3613 C   0  0  0  0  0  0  0  0  0  0  0  0
   14.5320   -0.7817   60.6619 C   0  0  0  0  0  0  0  0  0  0  0  0
   15.8176    0.5421   58.9310 C   0  0  0  0  0  0  0  0  0  0  0  0
   13.2346   -0.3453   60.0072 N   0  0  0  0  0  0  0  0  0  0  0  0
   13.0542   -1.0157   59.2394 H   0  0  0  0  0  0  0  0  0  0  0  0
   18.7393   -1.1147   58.8224 C   0  0  0  0  0  0  0  0  0  0  0  0
   19.9842   -1.6357   58.4417 C   0  0  0  0  0  0  0  0  0  0  0  0
   19.9226   -0.4367   56.3191 C   0  0  0  0  0  0  0  0  0  0  0  0
   18.0861   -0.2458   57.9361 C   0  0  0  0  0  0  0  0  0  0  0  0
   18.6894    0.0616   56.7291 C   0  0  0  0  0  0  0  0  0  0  0  0
   20.5627   -1.3016   57.2128 C   0  0  0  0  0  0  0  0  0  0  0  0
   16.8813    0.4825   57.8983 C   0  0  0  0  0  0  0  0  0  0  0  0
   16.7450    1.1828   56.7683 N   0  0  0  0  0  0  0  0  0  0  0  0
   17.8912    0.9145   56.0303 O   0  0  0  0  0  0  0  0  0  0  0  0
   21.7552   -1.8188   56.8854 F   0  0  0  0  0  0  0  0  0  0  0  0
 40 41  2  0  0  0
 40 43  1  0  0  0
 41 45  1  0  0  0
 42 44  1  0  0  0
 42 45  2  0  0  0
 43 44  2  0  0  0
 43 46  1  0  0  0
 44 48  1  0  0  0
 45 49  1  0  0  0
 46 37  1  0  0  0
 46 47  2  0  0  0
  1  2  2  0  0  0
  1  3  1  0  0  0
  1 31  1  0  0  0
  2  9  1  0  0  0
  2 10  1  0  0  0
  3 11  1  0  0  0
  3 12  2  0  0  0
  4  8  1  0  0  0
  4 10  2  0  0  0
  4 11  1  0  0  0
 14 16  1  0  0  0
 14 15  2  0  0  0
 14 13  1  0  0  0
  5  6  1  0  0  0
  5  7  1  0  0  0
  6  8  1  0  0  0
 33 35  1  0  0  0
 33 37  1  0  0  0
 34 36  1  0  0  0
 34 37  1  0  0  0
  7 11  1  0  0  0
 35 38  1  0  0  0
 36 38  1  0  0  0
  8 13  1  0  0  0
 29 30  1  0  0  0
 31 32  1  0  0  0
 16 17  1  0  0  0
 30 28  1  0  0  0
 17 18  1  0  0  0
 28 27  1  0  0  0
 18 19  1  0  0  0
 27 26  1  0  0  0
 19 20  1  0  0  0
 26 25  1  0  0  0
 20 21  1  0  0  0
 25 24  1  0  0  0
 21 22  1  0  0  0
 24 23  1  0  0  0
 22 23  1  0  0  0
 32 38  1  0  0  0
 47 48  1  0  0  0
 38 39  1  0  0  0
M  CHG 1  38   1
M  END
> <minimizedAffinity>
-9.76477

> <CNNscore>
0.2314083874

> <CNNaffinity>
8.1084136963

> <CNN_VS>
1.8763549328

> <CNNaffinity_variance>
0.8036864996

$$$$



 49 53  0  0  0  0  0  0  0  0999 V2000
   10.1970   -0.6890   58.0112 C   0  0  0  0  0  0  0  0  0  0  0  0
    9.7439   -1.3418   59.0989 C   0  0  0  0  0  0  0  0  0  0  0  0
   10.5505    0.7571   58.1634 C   0  0  0  0  0  0  0  0  0  0  0  0
    9.9036    0.4834   60.4739 C   0  0  0  0  0  0  0  0  0  0  0  0
   10.7929    3.1821   61.0515 C   0  0  0  0  0  0  0  0  0  0  0  0
    9.6843    2.5861   61.8990 C   0  0  0  0  0  0  0  0  0  0  0  0
   10.6480    2.7105   59.6170 C   0  0  0  0  0  0  0  0  0  0  0  0
    9.7735    1.0729   61.8678 C   0  0  0  0  0  0  0  0  0  0  0  0
    9.3811   -2.8036   59.0812 C   0  0  0  0  0  0  0  0  0  0  0  0
    9.5880   -0.7661   60.3356 N   0  0  0  0  0  0  0  0  0  0  0  0
   10.3941    1.2758   59.4517 N   0  0  0  0  0  0  0  0  0  0  0  0
   10.9344    1.4039   57.1893 O   0  0  0  0  0  0  0  0  0  0  0  0
   10.9305    0.6552   62.5843 O   0  0  0  0  0  0  0  0  0  0  0  0
   10.7981    0.6019   63.9408 C   0  0  0  0  0  0  0  0  0  0  0  0
   11.5213    1.1556   64.7588 O   0  0  0  0  0  0  0  0  0  0  0  0
    9.6104   -0.2563   64.3065 C   0  0  0  0  0  0  0  0  0  0  0  0
    8.6857    0.4283   65.3115 C   0  0  0  0  0  0  0  0  0  0  0  0
    7.5625   -0.4527   65.8723 C   0  0  0  0  0  0  0  0  0  0  0  0
    6.2406   -0.3247   65.1125 C   0  0  0  0  0  0  0  0  0  0  0  0
    5.6423   -1.7008   64.8113 C   0  0  0  0  0  0  0  0  0  0  0  0
    4.1684   -1.6498   64.3960 C   0  0  0  0  0  0  0  0  0  0  0  0
    3.3943   -2.9679   64.5135 C   0  0  0  0  0  0  0  0  0  0  0  0
    4.2341   -4.2050   64.1883 C   0  0  0  0  0  0  0  0  0  0  0  0
    3.4223   -5.4900   64.3653 C   0  0  0  0  0  0  0  0  0  0  0  0
    3.0038   -5.6844   65.8246 C   0  0  0  0  0  0  0  0  0  0  0  0
    2.4067   -7.0750   66.0494 C   0  0  0  0  0  0  0  0  0  0  0  0
    2.7728   -7.6845   67.4068 C   0  0  0  0  0  0  0  0  0  0  0  0
    2.3838   -6.7999   68.5943 C   0  0  0  0  0  0  0  0  0  0  0  0
    3.0923   -6.7308   71.0476 C   0  0  0  0  0  0  0  0  0  0  0  0
    2.4331   -7.5341   69.9371 C   0  0  0  0  0  0  0  0  0  0  0  0
   10.3524   -1.2596   56.6316 C   0  0  0  0  0  0  0  0  0  0  0  0
   11.7981   -1.6230   56.3604 C   0  0  0  0  0  0  0  0  0  0  0  0
   14.0738    1.1762   55.0884 C   0  0  0  0  0  0  0  0  0  0  0  0
   13.2656   -0.1989   53.1282 C   0  0  0  0  0  0  0  0  0  0  0  0
   13.5771    0.0948   56.0394 C   0  0  0  0  0  0  0  0  0  0  0  0
   12.7754   -1.2700   54.0942 C   0  0  0  0  0  0  0  0  0  0  0  0
   14.4451    0.5928   53.7154 C   0  0  0  0  0  0  0  0  0  0  0  0
   12.4023   -0.6421   55.4241 N   0  0  0  0  0  0  0  0  0  0  0  0
   11.6830    0.0733   55.2185 H   0  0  0  0  0  0  0  0  0  0  0  0
   12.7098    2.7461   51.8063 C   0  0  0  0  0  0  0  0  0  0  0  0
   12.3318    3.7584   50.9126 C   0  0  0  0  0  0  0  0  0  0  0  0
   14.6584    4.3227   50.4484 C   0  0  0  0  0  0  0  0  0  0  0  0
   14.0789    2.5263   52.0171 C   0  0  0  0  0  0  0  0  0  0  0  0
   14.9975    3.3104   51.3413 C   0  0  0  0  0  0  0  0  0  0  0  0
   13.2898    4.5307   50.2476 C   0  0  0  0  0  0  0  0  0  0  0  0
   14.8834    1.6621   52.7848 C   0  0  0  0  0  0  0  0  0  0  0  0
   16.1883    1.8865   52.6039 N   0  0  0  0  0  0  0  0  0  0  0  0
   16.2573    2.9303   51.6894 O   0  0  0  0  0  0  0  0  0  0  0  0
   12.8890    5.4882   49.3994 F   0  0  0  0  0  0  0  0  0  0  0  0
 40 41  2  0  0  0
 40 43  1  0  0  0
 41 45  1  0  0  0
 42 44  1  0  0  0
 42 45  2  0  0  0
 43 44  2  0  0  0
 43 46  1  0  0  0
 44 48  1  0  0  0
 45 49  1  0  0  0
 46 37  1  0  0  0
 46 47  2  0  0  0
  1  2  2  0  0  0
  1  3  1  0  0  0
  1 31  1  0  0  0
  2  9  1  0  0  0
  2 10  1  0  0  0
  3 11  1  0  0  0
  3 12  2  0  0  0
  4  8  1  0  0  0
  4 10  2  0  0  0
  4 11  1  0  0  0
 14 16  1  0  0  0
 14 15  2  0  0  0
 14 13  1  0  0  0
  5  6  1  0  0  0
  5  7  1  0  0  0
  6  8  1  0  0  0
 33 35  1  0  0  0
 33 37  1  0  0  0
 34 36  1  0  0  0
 34 37  1  0  0  0
  7 11  1  0  0  0
 35 38  1  0  0  0
 36 38  1  0  0  0
  8 13  1  0  0  0
 29 30  1  0  0  0
 31 32  1  0  0  0
 16 17  1  0  0  0
 30 28  1  0  0  0
 17 18  1  0  0  0
 28 27  1  0  0  0
 18 19  1  0  0  0
 27 26  1  0  0  0
 19 20  1  0  0  0
 26 25  1  0  0  0
 20 21  1  0  0  0
 25 24  1  0  0  0
 21 22  1  0  0  0
 24 23  1  0  0  0
 22 23  1  0  0  0
 32 38  1  0  0  0
 47 48  1  0  0  0
 38 39  1  0  0  0
M  CHG 1  38   1
M  END
> <minimizedAffinity>
-8.91132

> <CNNscore>
0.2312960923

> <CNNaffinity>
7.3056364059

> <CNN_VS>
1.6897650957

> <CNNaffinity_variance>
0.1027528048

$$$$



 49 53  0  0  0  0  0  0  0  0999 V2000
   11.2619    0.0012   62.2528 C   0  0  0  0  0  0  0  0  0  0  0  0
   10.7526    0.1669   63.4888 C   0  0  0  0  0  0  0  0  0  0  0  0
   10.7186   -1.1165   61.4194 C   0  0  0  0  0  0  0  0  0  0  0  0
    9.2869   -1.5841   63.3070 C   0  0  0  0  0  0  0  0  0  0  0  0
    7.9046   -3.6148   61.7666 C   0  0  0  0  0  0  0  0  0  0  0  0
    7.9598   -3.7608   63.2760 C   0  0  0  0  0  0  0  0  0  0  0  0
    9.2069   -3.0215   61.2636 C   0  0  0  0  0  0  0  0  0  0  0  0
    8.1591   -2.4003   63.9147 C   0  0  0  0  0  0  0  0  0  0  0  0
   11.1960    1.2705   64.4131 C   0  0  0  0  0  0  0  0  0  0  0  0
    9.7677   -0.6218   64.0301 N   0  0  0  0  0  0  0  0  0  0  0  0
    9.7012   -1.8651   62.0175 N   0  0  0  0  0  0  0  0  0  0  0  0
   11.1782   -1.3291   60.2976 O   0  0  0  0  0  0  0  0  0  0  0  0
    6.9761   -1.6258   63.7503 O   0  0  0  0  0  0  0  0  0  0  0  0
    6.3491   -1.2530   64.9029 C   0  0  0  0  0  0  0  0  0  0  0  0
    6.8849   -0.7715   65.8927 O   0  0  0  0  0  0  0  0  0  0  0  0
    4.8675   -1.5238   64.7910 C   0  0  0  0  0  0  0  0  0  0  0  0
    4.5387   -3.0118   64.8977 C   0  0  0  0  0  0  0  0  0  0  0  0
    4.0921   -3.6782   63.5905 C   0  0  0  0  0  0  0  0  0  0  0  0
    2.6048   -3.4947   63.2814 C   0  0  0  0  0  0  0  0  0  0  0  0
    2.1374   -4.4856   62.2128 C   0  0  0  0  0  0  0  0  0  0  0  0
    2.7731   -5.8733   62.3450 C   0  0  0  0  0  0  0  0  0  0  0  0
    2.6021   -6.8051   61.1395 C   0  0  0  0  0  0  0  0  0  0  0  0
    2.8559   -6.1220   59.7939 C   0  0  0  0  0  0  0  0  0  0  0  0
    4.3415   -6.1494   59.4283 C   0  0  0  0  0  0  0  0  0  0  0  0
    5.0318   -4.8397   59.8164 C   0  0  0  0  0  0  0  0  0  0  0  0
    5.7752   -4.2310   58.6257 C   0  0  0  0  0  0  0  0  0  0  0  0
    6.5110   -2.9304   58.9654 C   0  0  0  0  0  0  0  0  0  0  0  0
    6.8131   -2.0656   57.7388 C   0  0  0  0  0  0  0  0  0  0  0  0
    9.3037   -1.6542   57.3475 C   0  0  0  0  0  0  0  0  0  0  0  0
    8.0059   -1.1268   57.9397 C   0  0  0  0  0  0  0  0  0  0  0  0
   12.3607    0.8104   61.6275 C   0  0  0  0  0  0  0  0  0  0  0  0
   12.0729    1.0647   60.1619 C   0  0  0  0  0  0  0  0  0  0  0  0
   15.7918    0.6171   59.3861 C   0  0  0  0  0  0  0  0  0  0  0  0
   14.4712    0.5134   57.2339 C   0  0  0  0  0  0  0  0  0  0  0  0
   14.4967    0.4785   60.1761 C   0  0  0  0  0  0  0  0  0  0  0  0
   13.1862    0.3752   58.0404 C   0  0  0  0  0  0  0  0  0  0  0  0
   15.6814   -0.0423   58.0018 C   0  0  0  0  0  0  0  0  0  0  0  0
   13.3387    1.0590   59.3862 N   0  0  0  0  0  0  0  0  0  0  0  0
   13.5845    2.0447   59.1876 H   0  0  0  0  0  0  0  0  0  0  0  0
   18.7790   -1.2724   58.4317 C   0  0  0  0  0  0  0  0  0  0  0  0
   20.1401   -1.5825   58.3010 C   0  0  0  0  0  0  0  0  0  0  0  0
   20.3390   -0.2085   56.2962 C   0  0  0  0  0  0  0  0  0  0  0  0
   18.1997   -0.4200   57.4804 C   0  0  0  0  0  0  0  0  0  0  0  0
   18.9866    0.0782   56.4566 C   0  0  0  0  0  0  0  0  0  0  0  0
   20.9035   -1.0594   57.2521 C   0  0  0  0  0  0  0  0  0  0  0  0
   16.9326    0.1395   57.2255 C   0  0  0  0  0  0  0  0  0  0  0  0
   16.9290    0.9181   56.1394 N   0  0  0  0  0  0  0  0  0  0  0  0
   18.2307    0.8775   55.6551 O   0  0  0  0  0  0  0  0  0  0  0  0
   22.2024   -1.3779   57.1620 F   0  0  0  0  0  0  0  0  0  0  0  0
 40 41  2  0  0  0
 40 43  1  0  0  0
 41 45  1  0  0  0
 42 44  1  0  0  0
 42 45  2  0  0  0
 43 44  2  0  0  0
 43 46  1  0  0  0
 44 48  1  0  0  0
 45 49  1  0  0  0
 46 37  1  0  0  0
 46 47  2  0  0  0
  1  2  2  0  0  0
  1  3  1  0  0  0
  1 31  1  0  0  0
  2  9  1  0  0  0
  2 10  1  0  0  0
  3 11  1  0  0  0
  3 12  2  0  0  0
  4  8  1  0  0  0
  4 10  2  0  0  0
  4 11  1  0  0  0
 14 16  1  0  0  0
 14 15  2  0  0  0
 14 13  1  0  0  0
  5  6  1  0  0  0
  5  7  1  0  0  0
  6  8  1  0  0  0
 33 35  1  0  0  0
 33 37  1  0  0  0
 34 36  1  0  0  0
 34 37  1  0  0  0
  7 11  1  0  0  0
 35 38  1  0  0  0
 36 38  1  0  0  0
  8 13  1  0  0  0
 29 30  1  0  0  0
 31 32  1  0  0  0
 16 17  1  0  0  0
 30 28  1  0  0  0
 17 18  1  0  0  0
 28 27  1  0  0  0
 18 19  1  0  0  0
 27 26  1  0  0  0
 19 20  1  0  0  0
 26 25  1  0  0  0
 20 21  1  0  0  0
 25 24  1  0  0  0
 21 22  1  0  0  0
 24 23  1  0  0  0
 22 23  1  0  0  0
 32 38  1  0  0  0
 47 48  1  0  0  0
 38 39  1  0  0  0
M  CHG 1  38   1
M  END
> <minimizedAffinity>
-8.92566

> <CNNscore>
0.2162173986

> <CNNaffinity>
7.6336607933

> <CNN_VS>
1.6505303383

> <CNNaffinity_variance>
0.2173451930

$$$$



 49 53  0  0  0  0  0  0  0  0999 V2000
   11.5881   -0.4315   62.4614 C   0  0  0  0  0  0  0  0  0  0  0  0
   11.0474   -0.3190   63.6901 C   0  0  0  0  0  0  0  0  0  0  0  0
   10.9140   -1.3425   61.4842 C   0  0  0  0  0  0  0  0  0  0  0  0
    9.3259   -1.7658   63.2536 C   0  0  0  0  0  0  0  0  0  0  0  0
    7.7134   -3.3512   61.4387 C   0  0  0  0  0  0  0  0  0  0  0  0
    7.6630   -3.6696   62.9214 C   0  0  0  0  0  0  0  0  0  0  0  0
    9.1206   -2.9352   61.0539 C   0  0  0  0  0  0  0  0  0  0  0  0
    8.0485   -2.4413   63.7220 C   0  0  0  0  0  0  0  0  0  0  0  0
   11.6159    0.5850   64.7523 C   0  0  0  0  0  0  0  0  0  0  0  0
    9.9188   -0.9844   64.1008 N   0  0  0  0  0  0  0  0  0  0  0  0
    9.7569   -1.9693   61.9550 N   0  0  0  0  0  0  0  0  0  0  0  0
   11.3918   -1.5050   60.3618 O   0  0  0  0  0  0  0  0  0  0  0  0
    7.0193   -1.4643   63.6092 O   0  0  0  0  0  0  0  0  0  0  0  0
    6.3530   -1.1721   64.7630 C   0  0  0  0  0  0  0  0  0  0  0  0
    5.3181   -1.6980   65.1516 O   0  0  0  0  0  0  0  0  0  0  0  0
    7.0815   -0.0829   65.5138 C   0  0  0  0  0  0  0  0  0  0  0  0
    7.1331    1.2282   64.7314 C   0  0  0  0  0  0  0  0  0  0  0  0
    7.7077    1.1215   63.3135 C   0  0  0  0  0  0  0  0  0  0  0  0
    8.6714    2.2535   62.9517 C   0  0  0  0  0  0  0  0  0  0  0  0
    9.3211    2.0097   61.5876 C   0  0  0  0  0  0  0  0  0  0  0  0
    8.5991    0.9525   60.7459 C   0  0  0  0  0  0  0  0  0  0  0  0
    8.9243    0.9536   59.2477 C   0  0  0  0  0  0  0  0  0  0  0  0
    9.9677    1.9984   58.8460 C   0  0  0  0  0  0  0  0  0  0  0  0
   10.5928    1.6664   57.4894 C   0  0  0  0  0  0  0  0  0  0  0  0
   10.7116    0.1536   57.2894 C   0  0  0  0  0  0  0  0  0  0  0  0
   11.4235   -0.1776   55.9763 C   0  0  0  0  0  0  0  0  0  0  0  0
   12.0377   -1.5813   55.9520 C   0  0  0  0  0  0  0  0  0  0  0  0
   13.0947   -1.7628   54.8595 C   0  0  0  0  0  0  0  0  0  0  0  0
   14.3003    0.2456   53.8404 C   0  0  0  0  0  0  0  0  0  0  0  0
   13.0727   -0.6517   53.8062 C   0  0  0  0  0  0  0  0  0  0  0  0
   12.8367    0.2438   61.9736 C   0  0  0  0  0  0  0  0  0  0  0  0
   12.5805    0.9679   60.6676 C   0  0  0  0  0  0  0  0  0  0  0  0
   16.2333    0.4054   59.6812 C   0  0  0  0  0  0  0  0  0  0  0  0
   14.8154    0.5399   57.5934 C   0  0  0  0  0  0  0  0  0  0  0  0
   14.9688    0.2661   60.5192 C   0  0  0  0  0  0  0  0  0  0  0  0
   13.5619    0.3992   58.4474 C   0  0  0  0  0  0  0  0  0  0  0  0
   16.0278   -0.1339   58.2563 C   0  0  0  0  0  0  0  0  0  0  0  0
   13.8089    0.9638   59.8340 N   0  0  0  0  0  0  0  0  0  0  0  0
   14.0966    1.9492   59.7017 H   0  0  0  0  0  0  0  0  0  0  0  0
   19.1113   -1.4442   58.5177 C   0  0  0  0  0  0  0  0  0  0  0  0
   20.4589   -1.7782   58.3216 C   0  0  0  0  0  0  0  0  0  0  0  0
   20.6099   -0.3366   56.3605 C   0  0  0  0  0  0  0  0  0  0  0  0
   18.5145   -0.5457   57.6212 C   0  0  0  0  0  0  0  0  0  0  0  0
   19.2716   -0.0274   56.5851 C   0  0  0  0  0  0  0  0  0  0  0  0
   21.1921   -1.2335   57.2622 C   0  0  0  0  0  0  0  0  0  0  0  0
   17.2514    0.0494   57.4373 C   0  0  0  0  0  0  0  0  0  0  0  0
   17.2227    0.8670   56.3806 N   0  0  0  0  0  0  0  0  0  0  0  0
   18.5031    0.8164   55.8434 O   0  0  0  0  0  0  0  0  0  0  0  0
   22.4789   -1.5760   57.1088 F   0  0  0  0  0  0  0  0  0  0  0  0
 40 41  2  0  0  0
 40 43  1  0  0  0
 41 45  1  0  0  0
 42 44  1  0  0  0
 42 45  2  0  0  0
 43 44  2  0  0  0
 43 46  1  0  0  0
 44 48  1  0  0  0
 45 49  1  0  0  0
 46 37  1  0  0  0
 46 47  2  0  0  0
  1  2  2  0  0  0
  1  3  1  0  0  0
  1 31  1  0  0  0
  2  9  1  0  0  0
  2 10  1  0  0  0
  3 11  1  0  0  0
  3 12  2  0  0  0
  4  8  1  0  0  0
  4 10  2  0  0  0
  4 11  1  0  0  0
 14 16  1  0  0  0
 14 15  2  0  0  0
 14 13  1  0  0  0
  5  6  1  0  0  0
  5  7  1  0  0  0
  6  8  1  0  0  0
 33 35  1  0  0  0
 33 37  1  0  0  0
 34 36  1  0  0  0
 34 37  1  0  0  0
  7 11  1  0  0  0
 35 38  1  0  0  0
 36 38  1  0  0  0
  8 13  1  0  0  0
 29 30  1  0  0  0
 31 32  1  0  0  0
 16 17  1  0  0  0
 30 28  1  0  0  0
 17 18  1  0  0  0
 28 27  1  0  0  0
 18 19  1  0  0  0
 27 26  1  0  0  0
 19 20  1  0  0  0
 26 25  1  0  0  0
 20 21  1  0  0  0
 25 24  1  0  0  0
 21 22  1  0  0  0
 24 23  1  0  0  0
 22 23  1  0  0  0
 32 38  1  0  0  0
 47 48  1  0  0  0
 38 39  1  0  0  0
M  CHG 1  38   1
M  END
> <minimizedAffinity>
-7.04594

> <CNNscore>
0.2052712590

> <CNNaffinity>
7.9586591721

> <CNN_VS>
1.6336840391

> <CNNaffinity_variance>
0.5249581933

$$$$



 49 53  0  0  0  0  0  0  0  0999 V2000
   10.5483    1.1899   62.4323 C   0  0  0  0  0  0  0  0  0  0  0  0
    9.2939    1.6573   62.2818 C   0  0  0  0  0  0  0  0  0  0  0  0
   10.8586    0.4145   63.6739 C   0  0  0  0  0  0  0  0  0  0  0  0
    8.5465    0.7855   64.2639 C   0  0  0  0  0  0  0  0  0  0  0  0
    8.8569   -0.9199   66.5882 C   0  0  0  0  0  0  0  0  0  0  0  0
    7.8178    0.1850   66.6321 C   0  0  0  0  0  0  0  0  0  0  0  0
   10.0723   -0.4467   65.8137 C   0  0  0  0  0  0  0  0  0  0  0  0
    7.3926    0.5439   65.2218 C   0  0  0  0  0  0  0  0  0  0  0  0
    8.8504    2.4274   61.0657 C   0  0  0  0  0  0  0  0  0  0  0  0
    8.2843    1.4661   63.1924 N   0  0  0  0  0  0  0  0  0  0  0  0
    9.7826    0.2330   64.5472 N   0  0  0  0  0  0  0  0  0  0  0  0
   11.9999   -0.0014   63.8722 O   0  0  0  0  0  0  0  0  0  0  0  0
    6.6379   -0.5299   64.6705 O   0  0  0  0  0  0  0  0  0  0  0  0
    5.2823   -0.4004   64.7484 C   0  0  0  0  0  0  0  0  0  0  0  0
    4.6687    0.6304   64.9923 O   0  0  0  0  0  0  0  0  0  0  0  0
    4.6243   -1.7349   64.4892 C   0  0  0  0  0  0  0  0  0  0  0  0
    5.6272   -2.8873   64.4884 C   0  0  0  0  0  0  0  0  0  0  0  0
    5.6019   -3.7753   63.2383 C   0  0  0  0  0  0  0  0  0  0  0  0
    5.1904   -5.2224   63.5178 C   0  0  0  0  0  0  0  0  0  0  0  0
    3.7259   -5.3046   63.9545 C   0  0  0  0  0  0  0  0  0  0  0  0
    2.7345   -5.2323   62.7886 C   0  0  0  0  0  0  0  0  0  0  0  0
    3.1293   -6.0068   61.5257 C   0  0  0  0  0  0  0  0  0  0  0  0
    3.2914   -5.1221   60.2877 C   0  0  0  0  0  0  0  0  0  0  0  0
    4.6451   -5.3534   59.6129 C   0  0  0  0  0  0  0  0  0  0  0  0
    5.5470   -4.1238   59.7444 C   0  0  0  0  0  0  0  0  0  0  0  0
    6.6337   -4.1159   58.6673 C   0  0  0  0  0  0  0  0  0  0  0  0
    6.1122   -4.4729   57.2713 C   0  0  0  0  0  0  0  0  0  0  0  0
    6.3030   -5.9486   56.9110 C   0  0  0  0  0  0  0  0  0  0  0  0
    4.0219   -7.0063   56.4597 C   0  0  0  0  0  0  0  0  0  0  0  0
    5.3051   -6.4491   55.8630 C   0  0  0  0  0  0  0  0  0  0  0  0
   11.6954    1.4000   61.4874 C   0  0  0  0  0  0  0  0  0  0  0  0
   11.8038    0.2477   60.5096 C   0  0  0  0  0  0  0  0  0  0  0  0
   15.5173    0.0972   59.6046 C   0  0  0  0  0  0  0  0  0  0  0  0
   14.1394    0.0667   57.4862 C   0  0  0  0  0  0  0  0  0  0  0  0
   14.2584   -0.1814   60.4159 C   0  0  0  0  0  0  0  0  0  0  0  0
   12.8912   -0.2121   58.3138 C   0  0  0  0  0  0  0  0  0  0  0  0
   15.4050   -0.4650   58.1782 C   0  0  0  0  0  0  0  0  0  0  0  0
   13.0428    0.3799   59.7026 N   0  0  0  0  0  0  0  0  0  0  0  0
   13.2208    1.3911   59.5719 H   0  0  0  0  0  0  0  0  0  0  0  0
   18.6281   -1.3285   58.5767 C   0  0  0  0  0  0  0  0  0  0  0  0
   20.0142   -1.4817   58.4307 C   0  0  0  0  0  0  0  0  0  0  0  0
   20.0304   -0.1097   56.4148 C   0  0  0  0  0  0  0  0  0  0  0  0
   17.9437   -0.5557   57.6273 C   0  0  0  0  0  0  0  0  0  0  0  0
   18.6560    0.0214   56.5905 C   0  0  0  0  0  0  0  0  0  0  0  0
   20.7001   -0.8828   57.3689 C   0  0  0  0  0  0  0  0  0  0  0  0
   16.6179   -0.1471   57.3849 C   0  0  0  0  0  0  0  0  0  0  0  0
   16.5122    0.6175   56.2940 N   0  0  0  0  0  0  0  0  0  0  0  0
   17.8041    0.7225   55.7935 O   0  0  0  0  0  0  0  0  0  0  0  0
   22.0258   -1.0511   57.2644 F   0  0  0  0  0  0  0  0  0  0  0  0
 40 41  2  0  0  0
 40 43  1  0  0  0
 41 45  1  0  0  0
 42 44  1  0  0  0
 42 45  2  0  0  0
 43 44  2  0  0  0
 43 46  1  0  0  0
 44 48  1  0  0  0
 45 49  1  0  0  0
 46 37  1  0  0  0
 46 47  2  0  0  0
  1  2  2  0  0  0
  1  3  1  0  0  0
  1 31  1  0  0  0
  2  9  1  0  0  0
  2 10  1  0  0  0
  3 11  1  0  0  0
  3 12  2  0  0  0
  4  8  1  0  0  0
  4 10  2  0  0  0
  4 11  1  0  0  0
 14 16  1  0  0  0
 14 15  2  0  0  0
 14 13  1  0  0  0
  5  6  1  0  0  0
  5  7  1  0  0  0
  6  8  1  0  0  0
 33 35  1  0  0  0
 33 37  1  0  0  0
 34 36  1  0  0  0
 34 37  1  0  0  0
  7 11  1  0  0  0
 35 38  1  0  0  0
 36 38  1  0  0  0
  8 13  1  0  0  0
 29 30  1  0  0  0
 31 32  1  0  0  0
 16 17  1  0  0  0
 30 28  1  0  0  0
 17 18  1  0  0  0
 28 27  1  0  0  0
 18 19  1  0  0  0
 27 26  1  0  0  0
 19 20  1  0  0  0
 26 25  1  0  0  0
 20 21  1  0  0  0
 25 24  1  0  0  0
 21 22  1  0  0  0
 24 23  1  0  0  0
 22 23  1  0  0  0
 32 38  1  0  0  0
 47 48  1  0  0  0
 38 39  1  0  0  0
M  CHG 1  38   1
M  END
> <minimizedAffinity>
-7.83693

> <CNNscore>
0.1666310132

> <CNNaffinity>
7.5494866371

> <CNN_VS>
1.2579785585

> <CNNaffinity_variance>
0.1407207251

$$$$



 46 49  0  0  0  0  0  0  0  0999 V2000
   14.4454   -0.7514   61.8522 C   0  0  0  0  0  0  0  0  0  0  0  0
   13.1935   -0.6625   62.4545 C   0  0  0  0  0  0  0  0  0  0  0  0
   12.3408    0.4649   60.4940 C   0  0  0  0  0  0  0  0  0  0  0  0
   14.6565   -0.2186   60.5722 C   0  0  0  0  0  0  0  0  0  0  0  0
   13.6003    0.3962   59.8767 C   0  0  0  0  0  0  0  0  0  0  0  0
   12.1426   -0.0556   61.7755 C   0  0  0  0  0  0  0  0  0  0  0  0
   15.1177    1.0229   58.0184 C   0  0  0  0  0  0  0  0  0  0  0  0
   15.9896   -0.3859   59.9046 C   0  0  0  0  0  0  0  0  0  0  0  0
   16.2548    0.7916   58.9909 C   0  0  0  0  0  0  0  0  0  0  0  0
   13.8294    0.9075   58.5564 N   0  0  0  0  0  0  0  0  0  0  0  0
   15.3665    1.3766   56.8638 O   0  0  0  0  0  0  0  0  0  0  0  0
   10.9156    0.0282   62.3596 O   0  0  0  0  0  0  0  0  0  0  0  0
   10.7157    1.0810   63.3012 C   0  0  0  0  0  0  0  0  0  0  0  0
   10.2212    0.4831   64.6105 C   0  0  0  0  0  0  0  0  0  0  0  0
    8.7315    0.1531   64.5530 C   0  0  0  0  0  0  0  0  0  0  0  0
    8.3321   -0.7708   65.6940 C   0  0  0  0  0  0  0  0  0  0  0  0
    8.0734   -4.0458   63.7368 C   0  0  0  0  0  0  0  0  0  0  0  0
    5.8192   -3.0884   63.9625 C   0  0  0  0  0  0  0  0  0  0  0  0
    8.7128   -2.7462   64.2108 C   0  0  0  0  0  0  0  0  0  0  0  0
    6.4090   -1.7650   64.4459 C   0  0  0  0  0  0  0  0  0  0  0  0
    6.7916   -3.7553   63.0906 N   0  0  0  0  0  0  0  0  0  0  0  0
    7.7383   -2.0284   65.1244 N   0  0  0  0  0  0  0  0  0  0  0  0
    7.5524   -2.6566   65.9268 H   0  0  0  0  0  0  0  0  0  0  0  0
    5.4221   -4.3965   59.7426 C   0  0  0  0  0  0  0  0  0  0  0  0
    5.5949   -4.4160   61.1265 C   0  0  0  0  0  0  0  0  0  0  0  0
    6.3046   -3.6740   58.9396 C   0  0  0  0  0  0  0  0  0  0  0  0
    6.6502   -3.7128   61.7075 C   0  0  0  0  0  0  0  0  0  0  0  0
    7.3599   -2.9708   59.5207 C   0  0  0  0  0  0  0  0  0  0  0  0
    7.5326   -2.9902   60.9046 C   0  0  0  0  0  0  0  0  0  0  0  0
    8.4140   -2.0955   58.4651 Cl  0  0  0  0  0  0  0  0  0  0  0  0
    8.8407   -2.1210   61.6470 Cl  0  0  0  0  0  0  0  0  0  0  0  0
   12.6842    1.3097   57.7448 C   0  0  0  0  0  0  0  0  0  0  0  0
   12.7315    0.5969   56.5069 O   0  0  0  0  0  0  0  0  0  0  0  0
   12.1982   -0.6578   56.5329 C   0  0  0  0  0  0  0  0  0  0  0  0
   11.0787   -0.9596   56.9258 O   0  0  0  0  0  0  0  0  0  0  0  0
   13.1971   -1.6562   56.0024 C   0  0  0  0  0  0  0  0  0  0  0  0
   13.1134   -1.8195   54.4876 C   0  0  0  0  0  0  0  0  0  0  0  0
   14.4164   -1.4296   53.7837 C   0  0  0  0  0  0  0  0  0  0  0  0
   14.5100    0.0862   53.5904 C   0  0  0  0  0  0  0  0  0  0  0  0
   15.9466    0.5801   53.7722 C   0  0  0  0  0  0  0  0  0  0  0  0
   16.7229   -0.1844   54.8487 C   0  0  0  0  0  0  0  0  0  0  0  0
   18.0637    0.4270   55.2672 C   0  0  0  0  0  0  0  0  0  0  0  0
   18.7575   -0.3393   56.3952 C   0  0  0  0  0  0  0  0  0  0  0  0
   20.2757   -0.1552   56.3378 C   0  0  0  0  0  0  0  0  0  0  0  0
   20.7820   -1.9978   57.9807 C   0  0  0  0  0  0  0  0  0  0  0  0
   21.0050   -1.4784   56.5694 C   0  0  0  0  0  0  0  0  0  0  0  0
 24 25  2  0  0  0
 24 26  1  0  0  0
  1  2  2  0  0  0
  1  4  1  0  0  0
 25 27  1  0  0  0
  2  6  1  0  0  0
 26 28  2  0  0  0
  3  5  1  0  0  0
  3  6  2  0  0  0
  4  5  2  0  0  0
  4  8  1  0  0  0
 27 29  2  0  0  0
 27 21  1  0  0  0
  5 10  1  0  0  0
  6 12  1  0  0  0
 28 29  1  0  0  0
 28 30  1  0  0  0
 29 31  1  0  0  0
  7  9  1  0  0  0
  7 10  1  0  0  0
  7 11  2  0  0  0
 34 36  1  0  0  0
 34 35  2  0  0  0
 34 33  1  0  0  0
  8  9  1  0  0  0
 17 19  1  0  0  0
 17 21  1  0  0  0
 18 20  1  0  0  0
 18 21  1  0  0  0
 19 22  1  0  0  0
 20 22  1  0  0  0
 45 46  1  0  0  0
 36 37  1  0  0  0
 46 44  1  0  0  0
 37 38  1  0  0  0
 44 43  1  0  0  0
 38 39  1  0  0  0
 43 42  1  0  0  0
 39 40  1  0  0  0
 42 41  1  0  0  0
 40 41  1  0  0  0
 15 14  1  0  0  0
 15 16  1  0  0  0
 14 13  1  0  0  0
 16 22  1  0  0  0
 13 12  1  0  0  0
 32 10  1  0  0  0
 32 33  1  0  0  0
 22 23  1  0  0  0
M  CHG 1  22   1
M  END
> <minimizedAffinity>
-8.92827

> <CNNscore>
0.5113126636

> <CNNaffinity>
8.2026672363

> <CNN_VS>
4.1941275597

> <CNNaffinity_variance>
0.2417064160

$$$$



 46 49  0  0  0  0  0  0  0  0999 V2000
   12.3917   -0.3667   62.7398 C   0  0  0  0  0  0  0  0  0  0  0  0
   11.2373    0.2611   63.1995 C   0  0  0  0  0  0  0  0  0  0  0  0
   11.0942    1.4953   61.1263 C   0  0  0  0  0  0  0  0  0  0  0  0
   12.9131   -0.0556   61.4756 C   0  0  0  0  0  0  0  0  0  0  0  0
   12.2650    0.8818   60.6519 C   0  0  0  0  0  0  0  0  0  0  0  0
   10.5893    1.1903   62.3931 C   0  0  0  0  0  0  0  0  0  0  0  0
   14.0627    0.7118   58.9526 C   0  0  0  0  0  0  0  0  0  0  0  0
   14.1150   -0.7921   60.9621 C   0  0  0  0  0  0  0  0  0  0  0  0
   14.9165    0.1113   60.0493 C   0  0  0  0  0  0  0  0  0  0  0  0
   12.7975    1.1632   59.3503 N   0  0  0  0  0  0  0  0  0  0  0  0
   14.5343    0.8531   57.8223 O   0  0  0  0  0  0  0  0  0  0  0  0
    9.4570    1.8021   62.8376 O   0  0  0  0  0  0  0  0  0  0  0  0
    8.5225    0.9964   63.5535 C   0  0  0  0  0  0  0  0  0  0  0  0
    8.7343    1.2056   65.0461 C   0  0  0  0  0  0  0  0  0  0  0  0
    7.5690    0.6538   65.8640 C   0  0  0  0  0  0  0  0  0  0  0  0
    7.9816   -0.5948   66.6293 C   0  0  0  0  0  0  0  0  0  0  0  0
    8.7883   -3.5304   64.3151 C   0  0  0  0  0  0  0  0  0  0  0  0
    6.4568   -2.8482   63.9308 C   0  0  0  0  0  0  0  0  0  0  0  0
    9.0650   -2.2647   65.1177 C   0  0  0  0  0  0  0  0  0  0  0  0
    6.6805   -1.5656   64.7293 C   0  0  0  0  0  0  0  0  0  0  0  0
    7.7296   -3.2701   63.3371 N   0  0  0  0  0  0  0  0  0  0  0  0
    7.7704   -1.7996   65.7560 N   0  0  0  0  0  0  0  0  0  0  0  0
    7.4455   -2.5616   66.3781 H   0  0  0  0  0  0  0  0  0  0  0  0
    9.4493   -2.0249   60.3391 C   0  0  0  0  0  0  0  0  0  0  0  0
    9.1442   -2.2908   61.6739 C   0  0  0  0  0  0  0  0  0  0  0  0
    8.6126   -2.4926   59.3258 C   0  0  0  0  0  0  0  0  0  0  0  0
    8.0023   -3.0246   61.9954 C   0  0  0  0  0  0  0  0  0  0  0  0
    7.4707   -3.2264   59.6474 C   0  0  0  0  0  0  0  0  0  0  0  0
    7.1657   -3.4924   60.9822 C   0  0  0  0  0  0  0  0  0  0  0  0
    6.4800   -3.7764   58.3407 Cl  0  0  0  0  0  0  0  0  0  0  0  0
    5.7482   -4.4042   61.4029 Cl  0  0  0  0  0  0  0  0  0  0  0  0
   11.9920    1.9343   58.4077 C   0  0  0  0  0  0  0  0  0  0  0  0
   11.6924    1.1062   57.2821 O   0  0  0  0  0  0  0  0  0  0  0  0
   10.5769    0.3317   57.4052 C   0  0  0  0  0  0  0  0  0  0  0  0
    9.5668    0.6139   58.0366 O   0  0  0  0  0  0  0  0  0  0  0  0
   10.7553   -0.9580   56.6429 C   0  0  0  0  0  0  0  0  0  0  0  0
   12.1864   -1.1545   56.1517 C   0  0  0  0  0  0  0  0  0  0  0  0
   12.2717   -1.2686   54.6269 C   0  0  0  0  0  0  0  0  0  0  0  0
   13.6783   -1.6742   54.1791 C   0  0  0  0  0  0  0  0  0  0  0  0
   14.6021   -0.4583   54.0859 C   0  0  0  0  0  0  0  0  0  0  0  0
   15.8394   -0.5619   54.9829 C   0  0  0  0  0  0  0  0  0  0  0  0
   16.8822    0.5475   54.8142 C   0  0  0  0  0  0  0  0  0  0  0  0
   17.4442    1.0626   56.1407 C   0  0  0  0  0  0  0  0  0  0  0  0
   18.4022    0.0473   56.7680 C   0  0  0  0  0  0  0  0  0  0  0  0
   20.4845   -1.2771   56.2571 C   0  0  0  0  0  0  0  0  0  0  0  0
   19.7511    0.0383   56.0490 C   0  0  0  0  0  0  0  0  0  0  0  0
 24 25  2  0  0  0
 24 26  1  0  0  0
  1  2  2  0  0  0
  1  4  1  0  0  0
 25 27  1  0  0  0
  2  6  1  0  0  0
 26 28  2  0  0  0
  3  5  1  0  0  0
  3  6  2  0  0  0
  4  5  2  0  0  0
  4  8  1  0  0  0
 27 29  2  0  0  0
 27 21  1  0  0  0
  5 10  1  0  0  0
  6 12  1  0  0  0
 28 29  1  0  0  0
 28 30  1  0  0  0
 29 31  1  0  0  0
  7  9  1  0  0  0
  7 10  1  0  0  0
  7 11  2  0  0  0
 34 36  1  0  0  0
 34 35  2  0  0  0
 34 33  1  0  0  0
  8  9  1  0  0  0
 17 19  1  0  0  0
 17 21  1  0  0  0
 18 20  1  0  0  0
 18 21  1  0  0  0
 19 22  1  0  0  0
 20 22  1  0  0  0
 45 46  1  0  0  0
 36 37  1  0  0  0
 46 44  1  0  0  0
 37 38  1  0  0  0
 44 43  1  0  0  0
 38 39  1  0  0  0
 43 42  1  0  0  0
 39 40  1  0  0  0
 42 41  1  0  0  0
 40 41  1  0  0  0
 15 14  1  0  0  0
 15 16  1  0  0  0
 14 13  1  0  0  0
 16 22  1  0  0  0
 13 12  1  0  0  0
 32 10  1  0  0  0
 32 33  1  0  0  0
 22 23  1  0  0  0
M  CHG 1  22   1
M  END
> <minimizedAffinity>
-8.88098

> <CNNscore>
0.4450957775

> <CNNaffinity>
8.2690639496

> <CNN_VS>
3.6805255413

> <CNNaffinity_variance>
0.3903199732

$$$$



 46 49  0  0  0  0  0  0  0  0999 V2000
   14.1100   -0.5874   61.7982 C   0  0  0  0  0  0  0  0  0  0  0  0
   12.7488   -0.8228   61.9701 C   0  0  0  0  0  0  0  0  0  0  0  0
   12.3484   -0.1143   59.6942 C   0  0  0  0  0  0  0  0  0  0  0  0
   14.5970   -0.0990   60.5771 C   0  0  0  0  0  0  0  0  0  0  0  0
   13.7165    0.1417   59.5074 C   0  0  0  0  0  0  0  0  0  0  0  0
   11.8695   -0.5871   60.9189 C   0  0  0  0  0  0  0  0  0  0  0  0
   15.5604    1.0574   58.1254 C   0  0  0  0  0  0  0  0  0  0  0  0
   16.0735    0.0806   60.3805 C   0  0  0  0  0  0  0  0  0  0  0  0
   16.3257    1.2241   59.4210 C   0  0  0  0  0  0  0  0  0  0  0  0
   14.2387    0.6120   58.2572 N   0  0  0  0  0  0  0  0  0  0  0  0
   16.0845    1.3933   57.0612 O   0  0  0  0  0  0  0  0  0  0  0  0
   10.5383   -0.8215   61.0820 O   0  0  0  0  0  0  0  0  0  0  0  0
   10.0231   -0.7403   62.4098 C   0  0  0  0  0  0  0  0  0  0  0  0
   10.2819    0.6575   62.9536 C   0  0  0  0  0  0  0  0  0  0  0  0
   10.4427    0.6512   64.4720 C   0  0  0  0  0  0  0  0  0  0  0  0
    9.3013    1.3988   65.1453 C   0  0  0  0  0  0  0  0  0  0  0  0
    7.5832   -1.9150   65.9761 C   0  0  0  0  0  0  0  0  0  0  0  0
    5.9178   -0.3937   64.9959 C   0  0  0  0  0  0  0  0  0  0  0  0
    8.7245   -0.9992   65.5502 C   0  0  0  0  0  0  0  0  0  0  0  0
    7.0238    0.5603   64.5496 C   0  0  0  0  0  0  0  0  0  0  0  0
    6.4563   -1.7565   65.0542 N   0  0  0  0  0  0  0  0  0  0  0  0
    8.2082    0.4252   65.4855 N   0  0  0  0  0  0  0  0  0  0  0  0
    7.8770    0.6735   66.4351 H   0  0  0  0  0  0  0  0  0  0  0  0
    6.9745   -3.8046   62.0488 C   0  0  0  0  0  0  0  0  0  0  0  0
    7.1971   -2.9004   63.0872 C   0  0  0  0  0  0  0  0  0  0  0  0
    5.7540   -4.4734   61.9558 C   0  0  0  0  0  0  0  0  0  0  0  0
    6.1991   -2.6651   64.0329 C   0  0  0  0  0  0  0  0  0  0  0  0
    4.7560   -4.2380   62.9016 C   0  0  0  0  0  0  0  0  0  0  0  0
    4.9786   -3.3339   63.9401 C   0  0  0  0  0  0  0  0  0  0  0  0
    3.2687   -5.1032   62.7259 Cl  0  0  0  0  0  0  0  0  0  0  0  0
    3.7482   -3.0272   65.1273 Cl  0  0  0  0  0  0  0  0  0  0  0  0
   13.3694    0.6166   57.0841 C   0  0  0  0  0  0  0  0  0  0  0  0
   13.5405   -0.6190   56.3866 O   0  0  0  0  0  0  0  0  0  0  0  0
   12.4215   -1.1094   55.7809 C   0  0  0  0  0  0  0  0  0  0  0  0
   11.4279   -1.5489   56.3448 O   0  0  0  0  0  0  0  0  0  0  0  0
   12.5724   -1.0414   54.2813 C   0  0  0  0  0  0  0  0  0  0  0  0
   14.0312   -0.9505   53.8433 C   0  0  0  0  0  0  0  0  0  0  0  0
   14.4456    0.4782   53.4797 C   0  0  0  0  0  0  0  0  0  0  0  0
   15.9245    0.7226   53.7904 C   0  0  0  0  0  0  0  0  0  0  0  0
   16.5609   -0.5010   54.4526 C   0  0  0  0  0  0  0  0  0  0  0  0
   18.0819   -0.3941   54.5979 C   0  0  0  0  0  0  0  0  0  0  0  0
   18.5944    0.0083   55.9844 C   0  0  0  0  0  0  0  0  0  0  0  0
   20.1207    0.0453   56.0830 C   0  0  0  0  0  0  0  0  0  0  0  0
   20.7058   -1.3672   56.1516 C   0  0  0  0  0  0  0  0  0  0  0  0
   19.9900   -1.6071   58.5560 C   0  0  0  0  0  0  0  0  0  0  0  0
   21.1445   -1.7184   57.5731 C   0  0  0  0  0  0  0  0  0  0  0  0
 24 25  2  0  0  0
 24 26  1  0  0  0
  1  2  2  0  0  0
  1  4  1  0  0  0
 25 27  1  0  0  0
  2  6  1  0  0  0
 26 28  2  0  0  0
  3  5  1  0  0  0
  3  6  2  0  0  0
  4  5  2  0  0  0
  4  8  1  0  0  0
 27 29  2  0  0  0
 27 21  1  0  0  0
  5 10  1  0  0  0
  6 12  1  0  0  0
 28 29  1  0  0  0
 28 30  1  0  0  0
 29 31  1  0  0  0
  7  9  1  0  0  0
  7 10  1  0  0  0
  7 11  2  0  0  0
 34 36  1  0  0  0
 34 35  2  0  0  0
 34 33  1  0  0  0
  8  9  1  0  0  0
 17 19  1  0  0  0
 17 21  1  0  0  0
 18 20  1  0  0  0
 18 21  1  0  0  0
 19 22  1  0  0  0
 20 22  1  0  0  0
 45 46  1  0  0  0
 36 37  1  0  0  0
 46 44  1  0  0  0
 37 38  1  0  0  0
 44 43  1  0  0  0
 38 39  1  0  0  0
 43 42  1  0  0  0
 39 40  1  0  0  0
 42 41  1  0  0  0
 40 41  1  0  0  0
 15 14  1  0  0  0
 15 16  1  0  0  0
 14 13  1  0  0  0
 16 22  1  0  0  0
 13 12  1  0  0  0
 32 10  1  0  0  0
 32 33  1  0  0  0
 22 23  1  0  0  0
M  CHG 1  22   1
M  END
> <minimizedAffinity>
-9.07226

> <CNNscore>
0.3530811965

> <CNNaffinity>
7.7710433006

> <CNN_VS>
2.7438092232

> <CNNaffinity_variance>
0.0736809745

$$$$



 46 49  0  0  0  0  0  0  0  0999 V2000
    7.5406   -3.3620   61.2413 C   0  0  0  0  0  0  0  0  0  0  0  0
    8.5976   -2.7832   61.9382 C   0  0  0  0  0  0  0  0  0  0  0  0
    9.4041   -1.8023   59.8816 C   0  0  0  0  0  0  0  0  0  0  0  0
    7.4176   -3.1768   59.8566 C   0  0  0  0  0  0  0  0  0  0  0  0
    8.3519   -2.3897   59.1603 C   0  0  0  0  0  0  0  0  0  0  0  0
    9.5276   -2.0037   61.2588 C   0  0  0  0  0  0  0  0  0  0  0  0
    7.2701   -2.9257   56.9945 C   0  0  0  0  0  0  0  0  0  0  0  0
    6.2342   -3.7444   59.1298 C   0  0  0  0  0  0  0  0  0  0  0  0
    6.6262   -4.0943   57.7101 C   0  0  0  0  0  0  0  0  0  0  0  0
    8.1909   -2.1877   57.7496 N   0  0  0  0  0  0  0  0  0  0  0  0
    7.0320   -2.7374   55.7996 O   0  0  0  0  0  0  0  0  0  0  0  0
   10.5595   -1.4318   61.9384 O   0  0  0  0  0  0  0  0  0  0  0  0
   11.4100   -0.5514   61.2060 C   0  0  0  0  0  0  0  0  0  0  0  0
   12.1413    0.3549   62.1860 C   0  0  0  0  0  0  0  0  0  0  0  0
   11.1680    1.1433   63.0593 C   0  0  0  0  0  0  0  0  0  0  0  0
   11.1586    0.6108   64.4846 C   0  0  0  0  0  0  0  0  0  0  0  0
    8.0337   -0.2647   66.5075 C   0  0  0  0  0  0  0  0  0  0  0  0
    7.3584    1.0954   64.5728 C   0  0  0  0  0  0  0  0  0  0  0  0
    9.4248   -0.4741   65.9212 C   0  0  0  0  0  0  0  0  0  0  0  0
    8.7386    0.9191   63.9429 C   0  0  0  0  0  0  0  0  0  0  0  0
    7.0694   -0.0634   65.4237 N   0  0  0  0  0  0  0  0  0  0  0  0
    9.7651    0.7110   65.0383 N   0  0  0  0  0  0  0  0  0  0  0  0
    9.7462    1.5548   65.6389 H   0  0  0  0  0  0  0  0  0  0  0  0
    5.9579   -3.4008   64.3643 C   0  0  0  0  0  0  0  0  0  0  0  0
    6.7680   -2.3569   64.8109 C   0  0  0  0  0  0  0  0  0  0  0  0
    4.6116   -3.1679   64.0835 C   0  0  0  0  0  0  0  0  0  0  0  0
    6.2316   -1.0800   64.9770 C   0  0  0  0  0  0  0  0  0  0  0  0
    4.0753   -1.8910   64.2496 C   0  0  0  0  0  0  0  0  0  0  0  0
    4.8853   -0.8471   64.6964 C   0  0  0  0  0  0  0  0  0  0  0  0
    2.3985   -1.6749   63.8847 Cl  0  0  0  0  0  0  0  0  0  0  0  0
    4.2361    0.7500   64.9094 Cl  0  0  0  0  0  0  0  0  0  0  0  0
    9.0039   -1.1748   57.0824 C   0  0  0  0  0  0  0  0  0  0  0  0
   10.2022   -1.7931   56.6088 O   0  0  0  0  0  0  0  0  0  0  0  0
   11.1994   -0.9366   56.2466 C   0  0  0  0  0  0  0  0  0  0  0  0
   11.8555   -0.9861   55.2142 O   0  0  0  0  0  0  0  0  0  0  0  0
   11.3979    0.1089   57.3160 C   0  0  0  0  0  0  0  0  0  0  0  0
   12.8174    0.6683   57.3314 C   0  0  0  0  0  0  0  0  0  0  0  0
   13.1931    1.2748   58.6865 C   0  0  0  0  0  0  0  0  0  0  0  0
   14.7112    1.2962   58.8825 C   0  0  0  0  0  0  0  0  0  0  0  0
   15.2048   -0.0003   59.5276 C   0  0  0  0  0  0  0  0  0  0  0  0
   16.1469   -0.8082   58.6300 C   0  0  0  0  0  0  0  0  0  0  0  0
   17.5317   -1.1080   59.2125 C   0  0  0  0  0  0  0  0  0  0  0  0
   18.6784   -0.8016   58.2472 C   0  0  0  0  0  0  0  0  0  0  0  0
   19.8816   -1.7101   58.5102 C   0  0  0  0  0  0  0  0  0  0  0  0
   21.3934   -1.5430   56.5008 C   0  0  0  0  0  0  0  0  0  0  0  0
   21.1665   -1.1095   57.9403 C   0  0  0  0  0  0  0  0  0  0  0  0
 24 25  2  0  0  0
 24 26  1  0  0  0
  1  2  2  0  0  0
  1  4  1  0  0  0
 25 27  1  0  0  0
  2  6  1  0  0  0
 26 28  2  0  0  0
  3  5  1  0  0  0
  3  6  2  0  0  0
  4  5  2  0  0  0
  4  8  1  0  0  0
 27 29  2  0  0  0
 27 21  1  0  0  0
  5 10  1  0  0  0
  6 12  1  0  0  0
 28 29  1  0  0  0
 28 30  1  0  0  0
 29 31  1  0  0  0
  7  9  1  0  0  0
  7 10  1  0  0  0
  7 11  2  0  0  0
 34 36  1  0  0  0
 34 35  2  0  0  0
 34 33  1  0  0  0
  8  9  1  0  0  0
 17 19  1  0  0  0
 17 21  1  0  0  0
 18 20  1  0  0  0
 18 21  1  0  0  0
 19 22  1  0  0  0
 20 22  1  0  0  0
 45 46  1  0  0  0
 36 37  1  0  0  0
 46 44  1  0  0  0
 37 38  1  0  0  0
 44 43  1  0  0  0
 38 39  1  0  0  0
 43 42  1  0  0  0
 39 40  1  0  0  0
 42 41  1  0  0  0
 40 41  1  0  0  0
 15 14  1  0  0  0
 15 16  1  0  0  0
 14 13  1  0  0  0
 16 22  1  0  0  0
 13 12  1  0  0  0
 32 10  1  0  0  0
 32 33  1  0  0  0
 22 23  1  0  0  0
M  CHG 1  22   1
M  END
> <minimizedAffinity>
-8.87867

> <CNNscore>
0.3108546436

> <CNNaffinity>
7.9893851280

> <CNN_VS>
2.4835374355

> <CNNaffinity_variance>
0.3189491630

$$$$



 46 49  0  0  0  0  0  0  0  0999 V2000
   14.2152   -0.5858   61.7156 C   0  0  0  0  0  0  0  0  0  0  0  0
   13.0444   -0.6225   62.4678 C   0  0  0  0  0  0  0  0  0  0  0  0
   11.8164    0.2603   60.5824 C   0  0  0  0  0  0  0  0  0  0  0  0
   14.1962   -0.1109   60.3961 C   0  0  0  0  0  0  0  0  0  0  0  0
   12.9901    0.3171   59.8134 C   0  0  0  0  0  0  0  0  0  0  0  0
   11.8465   -0.2005   61.9012 C   0  0  0  0  0  0  0  0  0  0  0  0
   14.1734    1.0182   57.7503 C   0  0  0  0  0  0  0  0  0  0  0  0
   15.4497   -0.1453   59.5724 C   0  0  0  0  0  0  0  0  0  0  0  0
   15.4400    0.9974   58.5795 C   0  0  0  0  0  0  0  0  0  0  0  0
   12.9870    0.7705   58.4528 N   0  0  0  0  0  0  0  0  0  0  0  0
   14.2311    1.3285   56.5584 O   0  0  0  0  0  0  0  0  0  0  0  0
   10.6987   -0.2403   62.6325 O   0  0  0  0  0  0  0  0  0  0  0  0
   10.5368    0.7558   63.6407 C   0  0  0  0  0  0  0  0  0  0  0  0
   10.1135    0.0798   64.9370 C   0  0  0  0  0  0  0  0  0  0  0  0
    8.7150    0.5143   65.3693 C   0  0  0  0  0  0  0  0  0  0  0  0
    7.9252   -0.6613   65.9253 C   0  0  0  0  0  0  0  0  0  0  0  0
    4.6480   -1.4118   64.1031 C   0  0  0  0  0  0  0  0  0  0  0  0
    6.3398   -3.0419   63.3751 C   0  0  0  0  0  0  0  0  0  0  0  0
    5.5353   -0.9491   65.2526 C   0  0  0  0  0  0  0  0  0  0  0  0
    7.2688   -2.6127   64.5089 C   0  0  0  0  0  0  0  0  0  0  0  0
    4.9501   -2.8083   63.7811 N   0  0  0  0  0  0  0  0  0  0  0  0
    6.9856   -1.1676   64.8673 N   0  0  0  0  0  0  0  0  0  0  0  0
    7.1648   -0.6017   64.0183 H   0  0  0  0  0  0  0  0  0  0  0  0
    3.0939   -5.0117   66.0604 C   0  0  0  0  0  0  0  0  0  0  0  0
    3.8891   -3.9692   65.5846 C   0  0  0  0  0  0  0  0  0  0  0  0
    2.5625   -5.9455   65.1709 C   0  0  0  0  0  0  0  0  0  0  0  0
    4.1528   -3.8605   64.2192 C   0  0  0  0  0  0  0  0  0  0  0  0
    2.8262   -5.8367   63.8055 C   0  0  0  0  0  0  0  0  0  0  0  0
    3.6213   -4.7941   63.3297 C   0  0  0  0  0  0  0  0  0  0  0  0
    2.1335   -7.0282   62.7604 Cl  0  0  0  0  0  0  0  0  0  0  0  0
    3.9613   -4.6417   61.6330 Cl  0  0  0  0  0  0  0  0  0  0  0  0
   11.7085    0.9694   57.7762 C   0  0  0  0  0  0  0  0  0  0  0  0
   11.7468    0.2859   56.5217 O   0  0  0  0  0  0  0  0  0  0  0  0
   11.5711   -1.0649   56.5852 C   0  0  0  0  0  0  0  0  0  0  0  0
   10.7276   -1.6538   57.2488 O   0  0  0  0  0  0  0  0  0  0  0  0
   12.5827   -1.7605   55.7084 C   0  0  0  0  0  0  0  0  0  0  0  0
   12.3527   -1.4933   54.2238 C   0  0  0  0  0  0  0  0  0  0  0  0
   13.6254   -1.0317   53.5079 C   0  0  0  0  0  0  0  0  0  0  0  0
   14.8755   -1.3779   54.3209 C   0  0  0  0  0  0  0  0  0  0  0  0
   15.9287   -0.2733   54.2147 C   0  0  0  0  0  0  0  0  0  0  0  0
   16.9415   -0.2836   55.3637 C   0  0  0  0  0  0  0  0  0  0  0  0
   17.7000    1.0266   55.5980 C   0  0  0  0  0  0  0  0  0  0  0  0
   18.9864    0.8499   56.4071 C   0  0  0  0  0  0  0  0  0  0  0  0
   19.6368   -0.5063   56.1244 C   0  0  0  0  0  0  0  0  0  0  0  0
   21.2546   -2.1544   57.1330 C   0  0  0  0  0  0  0  0  0  0  0  0
   20.9231   -0.6845   56.9307 C   0  0  0  0  0  0  0  0  0  0  0  0
 24 25  2  0  0  0
 24 26  1  0  0  0
  1  2  2  0  0  0
  1  4  1  0  0  0
 25 27  1  0  0  0
  2  6  1  0  0  0
 26 28  2  0  0  0
  3  5  1  0  0  0
  3  6  2  0  0  0
  4  5  2  0  0  0
  4  8  1  0  0  0
 27 29  2  0  0  0
 27 21  1  0  0  0
  5 10  1  0  0  0
  6 12  1  0  0  0
 28 29  1  0  0  0
 28 30  1  0  0  0
 29 31  1  0  0  0
  7  9  1  0  0  0
  7 10  1  0  0  0
  7 11  2  0  0  0
 34 36  1  0  0  0
 34 35  2  0  0  0
 34 33  1  0  0  0
  8  9  1  0  0  0
 17 19  1  0  0  0
 17 21  1  0  0  0
 18 20  1  0  0  0
 18 21  1  0  0  0
 19 22  1  0  0  0
 20 22  1  0  0  0
 45 46  1  0  0  0
 36 37  1  0  0  0
 46 44  1  0  0  0
 37 38  1  0  0  0
 44 43  1  0  0  0
 38 39  1  0  0  0
 43 42  1  0  0  0
 39 40  1  0  0  0
 42 41  1  0  0  0
 40 41  1  0  0  0
 15 14  1  0  0  0
 15 16  1  0  0  0
 14 13  1  0  0  0
 16 22  1  0  0  0
 13 12  1  0  0  0
 32 10  1  0  0  0
 32 33  1  0  0  0
 22 23  1  0  0  0
M  CHG 1  22   1
M  END
> <minimizedAffinity>
-8.03850

> <CNNscore>
0.3019795120

> <CNNaffinity>
7.4230842590

> <CNN_VS>
2.2416193485

> <CNNaffinity_variance>
0.0259447210

$$$$



 46 49  0  0  0  0  0  0  0  0999 V2000
   12.4567   -0.3763   62.7338 C   0  0  0  0  0  0  0  0  0  0  0  0
   11.3339    0.2445   63.2740 C   0  0  0  0  0  0  0  0  0  0  0  0
   11.1095    1.5671   61.2634 C   0  0  0  0  0  0  0  0  0  0  0  0
   12.9219   -0.0178   61.4603 C   0  0  0  0  0  0  0  0  0  0  0  0
   12.2482    0.9610   60.7084 C   0  0  0  0  0  0  0  0  0  0  0  0
   10.6609    1.2145   62.5390 C   0  0  0  0  0  0  0  0  0  0  0  0
   13.9612    0.8427   58.9195 C   0  0  0  0  0  0  0  0  0  0  0  0
   14.0882   -0.7456   60.8595 C   0  0  0  0  0  0  0  0  0  0  0  0
   14.8577    0.1865   59.9481 C   0  0  0  0  0  0  0  0  0  0  0  0
   12.7224    1.2913   59.3957 N   0  0  0  0  0  0  0  0  0  0  0  0
   14.3808    1.0264   57.7749 O   0  0  0  0  0  0  0  0  0  0  0  0
    9.5593    1.8197   63.0622 O   0  0  0  0  0  0  0  0  0  0  0  0
    8.6241    0.9867   63.7453 C   0  0  0  0  0  0  0  0  0  0  0  0
    8.6411    1.3388   65.2259 C   0  0  0  0  0  0  0  0  0  0  0  0
    7.5401    0.6091   65.9919 C   0  0  0  0  0  0  0  0  0  0  0  0
    8.0827   -0.6397   66.6709 C   0  0  0  0  0  0  0  0  0  0  0  0
    8.8006   -3.5624   64.3115 C   0  0  0  0  0  0  0  0  0  0  0  0
    6.4808   -2.8245   63.9607 C   0  0  0  0  0  0  0  0  0  0  0  0
    9.1133   -2.3134   65.1269 C   0  0  0  0  0  0  0  0  0  0  0  0
    6.7409   -1.5574   64.7729 C   0  0  0  0  0  0  0  0  0  0  0  0
    7.7378   -3.2664   63.3483 N   0  0  0  0  0  0  0  0  0  0  0  0
    7.8360   -1.8283   65.7849 N   0  0  0  0  0  0  0  0  0  0  0  0
    7.5010   -2.5909   66.4008 H   0  0  0  0  0  0  0  0  0  0  0  0
    9.4211   -1.9700   60.3514 C   0  0  0  0  0  0  0  0  0  0  0  0
    9.1251   -2.2477   61.6858 C   0  0  0  0  0  0  0  0  0  0  0  0
    8.5939   -2.4540   59.3380 C   0  0  0  0  0  0  0  0  0  0  0  0
    8.0018   -3.0098   62.0069 C   0  0  0  0  0  0  0  0  0  0  0  0
    7.4706   -3.2162   59.6592 C   0  0  0  0  0  0  0  0  0  0  0  0
    7.1746   -3.4941   60.9937 C   0  0  0  0  0  0  0  0  0  0  0  0
    6.4907   -3.7852   58.3524 Cl  0  0  0  0  0  0  0  0  0  0  0  0
    5.7803   -4.4411   61.4138 Cl  0  0  0  0  0  0  0  0  0  0  0  0
   11.8837    2.1108   58.5258 C   0  0  0  0  0  0  0  0  0  0  0  0
   11.4711    1.3160   57.4119 O   0  0  0  0  0  0  0  0  0  0  0  0
   10.3691    0.5408   57.6218 C   0  0  0  0  0  0  0  0  0  0  0  0
    9.4291    0.8053   58.3601 O   0  0  0  0  0  0  0  0  0  0  0  0
   10.4626   -0.7241   56.8049 C   0  0  0  0  0  0  0  0  0  0  0  0
   11.9046   -1.1650   56.5716 C   0  0  0  0  0  0  0  0  0  0  0  0
   12.2406   -1.3053   55.0841 C   0  0  0  0  0  0  0  0  0  0  0  0
   13.5411   -2.0870   54.8809 C   0  0  0  0  0  0  0  0  0  0  0  0
   14.4348   -1.4135   53.8375 C   0  0  0  0  0  0  0  0  0  0  0  0
   15.6701   -0.7360   54.4383 C   0  0  0  0  0  0  0  0  0  0  0  0
   15.6313    0.7943   54.4968 C   0  0  0  0  0  0  0  0  0  0  0  0
   15.2965    1.4473   53.1543 C   0  0  0  0  0  0  0  0  0  0  0  0
   13.8610    1.9776   53.1389 C   0  0  0  0  0  0  0  0  0  0  0  0
   14.7003    3.8216   51.6403 C   0  0  0  0  0  0  0  0  0  0  0  0
   13.5904    2.8125   51.8874 C   0  0  0  0  0  0  0  0  0  0  0  0
 24 25  2  0  0  0
 24 26  1  0  0  0
  1  2  2  0  0  0
  1  4  1  0  0  0
 25 27  1  0  0  0
  2  6  1  0  0  0
 26 28  2  0  0  0
  3  5  1  0  0  0
  3  6  2  0  0  0
  4  5  2  0  0  0
  4  8  1  0  0  0
 27 29  2  0  0  0
 27 21  1  0  0  0
  5 10  1  0  0  0
  6 12  1  0  0  0
 28 29  1  0  0  0
 28 30  1  0  0  0
 29 31  1  0  0  0
  7  9  1  0  0  0
  7 10  1  0  0  0
  7 11  2  0  0  0
 34 36  1  0  0  0
 34 35  2  0  0  0
 34 33  1  0  0  0
  8  9  1  0  0  0
 17 19  1  0  0  0
 17 21  1  0  0  0
 18 20  1  0  0  0
 18 21  1  0  0  0
 19 22  1  0  0  0
 20 22  1  0  0  0
 45 46  1  0  0  0
 36 37  1  0  0  0
 46 44  1  0  0  0
 37 38  1  0  0  0
 44 43  1  0  0  0
 38 39  1  0  0  0
 43 42  1  0  0  0
 39 40  1  0  0  0
 42 41  1  0  0  0
 40 41  1  0  0  0
 15 14  1  0  0  0
 15 16  1  0  0  0
 14 13  1  0  0  0
 16 22  1  0  0  0
 13 12  1  0  0  0
 32 10  1  0  0  0
 32 33  1  0  0  0
 22 23  1  0  0  0
M  CHG 1  22   1
M  END
> <minimizedAffinity>
-8.59415

> <CNNscore>
0.2916913033

> <CNNaffinity>
8.0471935272

> <CNN_VS>
2.3472964764

> <CNNaffinity_variance>
0.6216723323

$$$$



 46 49  0  0  0  0  0  0  0  0999 V2000
   14.1699   -0.6321   60.9269 C   0  0  0  0  0  0  0  0  0  0  0  0
   13.5611   -0.6217   62.1788 C   0  0  0  0  0  0  0  0  0  0  0  0
   11.7077    0.6261   61.2567 C   0  0  0  0  0  0  0  0  0  0  0  0
   13.5578    0.0003   59.8350 C   0  0  0  0  0  0  0  0  0  0  0  0
   12.3137    0.6371   59.9899 C   0  0  0  0  0  0  0  0  0  0  0  0
   12.3311    0.0062   62.3429 C   0  0  0  0  0  0  0  0  0  0  0  0
   12.3727    1.4410   57.6450 C   0  0  0  0  0  0  0  0  0  0  0  0
   14.1880   -0.0812   58.4759 C   0  0  0  0  0  0  0  0  0  0  0  0
   13.8613    1.1679   57.6855 C   0  0  0  0  0  0  0  0  0  0  0  0
   11.6903    1.2515   58.8537 N   0  0  0  0  0  0  0  0  0  0  0  0
   11.8633    1.8865   56.6144 O   0  0  0  0  0  0  0  0  0  0  0  0
   11.7305    0.0135   63.5647 O   0  0  0  0  0  0  0  0  0  0  0  0
   11.3018    1.2769   64.0695 C   0  0  0  0  0  0  0  0  0  0  0  0
    9.9314    1.1115   64.7107 C   0  0  0  0  0  0  0  0  0  0  0  0
    9.3179   -0.2489   64.3875 C   0  0  0  0  0  0  0  0  0  0  0  0
    8.2066   -0.5938   65.3679 C   0  0  0  0  0  0  0  0  0  0  0  0
    7.9192   -4.0651   63.7895 C   0  0  0  0  0  0  0  0  0  0  0  0
    5.6534   -3.2089   64.2163 C   0  0  0  0  0  0  0  0  0  0  0  0
    8.5265   -2.6911   64.0464 C   0  0  0  0  0  0  0  0  0  0  0  0
    6.2112   -1.8130   64.4867 C   0  0  0  0  0  0  0  0  0  0  0  0
    6.5500   -3.9116   63.2928 N   0  0  0  0  0  0  0  0  0  0  0  0
    7.6297   -1.9336   65.0065 N   0  0  0  0  0  0  0  0  0  0  0  0
    7.5879   -2.4832   65.8836 H   0  0  0  0  0  0  0  0  0  0  0  0
    6.7646   -3.4667   59.6525 C   0  0  0  0  0  0  0  0  0  0  0  0
    7.0517   -3.3785   61.0146 C   0  0  0  0  0  0  0  0  0  0  0  0
    5.6589   -4.1980   59.2186 C   0  0  0  0  0  0  0  0  0  0  0  0
    6.2332   -4.0219   61.9429 C   0  0  0  0  0  0  0  0  0  0  0  0
    4.8404   -4.8413   60.1470 C   0  0  0  0  0  0  0  0  0  0  0  0
    5.1276   -4.7533   61.5091 C   0  0  0  0  0  0  0  0  0  0  0  0
    3.4881   -5.7316   59.5384 Cl  0  0  0  0  0  0  0  0  0  0  0  0
    4.1202   -5.5472   62.6806 Cl  0  0  0  0  0  0  0  0  0  0  0  0
   10.2992    1.6828   58.9569 C   0  0  0  0  0  0  0  0  0  0  0  0
    9.4862    0.7790   58.2054 O   0  0  0  0  0  0  0  0  0  0  0  0
    9.1858   -0.3957   58.8293 C   0  0  0  0  0  0  0  0  0  0  0  0
    8.7197   -0.5181   59.9546 O   0  0  0  0  0  0  0  0  0  0  0  0
    9.5153   -1.5597   57.9279 C   0  0  0  0  0  0  0  0  0  0  0  0
    9.9857   -1.1152   56.5461 C   0  0  0  0  0  0  0  0  0  0  0  0
   11.4613   -1.4408   56.2971 C   0  0  0  0  0  0  0  0  0  0  0  0
   11.8573   -1.1452   54.8482 C   0  0  0  0  0  0  0  0  0  0  0  0
   13.3782   -1.1261   54.6826 C   0  0  0  0  0  0  0  0  0  0  0  0
   13.8476   -0.3538   53.4460 C   0  0  0  0  0  0  0  0  0  0  0  0
   14.2014    1.1194   53.6723 C   0  0  0  0  0  0  0  0  0  0  0  0
   13.5483    2.0652   52.6625 C   0  0  0  0  0  0  0  0  0  0  0  0
   14.5855    2.9846   52.0135 C   0  0  0  0  0  0  0  0  0  0  0  0
   12.4476    3.6537   50.8592 C   0  0  0  0  0  0  0  0  0  0  0  0
   13.9508    3.8670   50.9388 C   0  0  0  0  0  0  0  0  0  0  0  0
 24 25  2  0  0  0
 24 26  1  0  0  0
  1  2  2  0  0  0
  1  4  1  0  0  0
 25 27  1  0  0  0
  2  6  1  0  0  0
 26 28  2  0  0  0
  3  5  1  0  0  0
  3  6  2  0  0  0
  4  5  2  0  0  0
  4  8  1  0  0  0
 27 29  2  0  0  0
 27 21  1  0  0  0
  5 10  1  0  0  0
  6 12  1  0  0  0
 28 29  1  0  0  0
 28 30  1  0  0  0
 29 31  1  0  0  0
  7  9  1  0  0  0
  7 10  1  0  0  0
  7 11  2  0  0  0
 34 36  1  0  0  0
 34 35  2  0  0  0
 34 33  1  0  0  0
  8  9  1  0  0  0
 17 19  1  0  0  0
 17 21  1  0  0  0
 18 20  1  0  0  0
 18 21  1  0  0  0
 19 22  1  0  0  0
 20 22  1  0  0  0
 45 46  1  0  0  0
 36 37  1  0  0  0
 46 44  1  0  0  0
 37 38  1  0  0  0
 44 43  1  0  0  0
 38 39  1  0  0  0
 43 42  1  0  0  0
 39 40  1  0  0  0
 42 41  1  0  0  0
 40 41  1  0  0  0
 15 14  1  0  0  0
 15 16  1  0  0  0
 14 13  1  0  0  0
 16 22  1  0  0  0
 13 12  1  0  0  0
 32 10  1  0  0  0
 32 33  1  0  0  0
 22 23  1  0  0  0
M  CHG 1  22   1
M  END
> <minimizedAffinity>
-8.22334

> <CNNscore>
0.2525366545

> <CNNaffinity>
7.7738509178

> <CNN_VS>
1.9631823301

> <CNNaffinity_variance>
0.3046273589

$$$$



 46 49  0  0  0  0  0  0  0  0999 V2000
   14.2153   -0.6260   60.9071 C   0  0  0  0  0  0  0  0  0  0  0  0
   13.5739   -0.6462   62.1425 C   0  0  0  0  0  0  0  0  0  0  0  0
   11.7202    0.5776   61.1896 C   0  0  0  0  0  0  0  0  0  0  0  0
   13.6192    0.0101   59.8084 C   0  0  0  0  0  0  0  0  0  0  0  0
   12.3587    0.6194   59.9395 C   0  0  0  0  0  0  0  0  0  0  0  0
   12.3275   -0.0457   62.2829 C   0  0  0  0  0  0  0  0  0  0  0  0
   12.4625    1.4588   57.6086 C   0  0  0  0  0  0  0  0  0  0  0  0
   14.2861   -0.0387   58.4655 C   0  0  0  0  0  0  0  0  0  0  0  0
   13.9548    1.2151   57.6846 C   0  0  0  0  0  0  0  0  0  0  0  0
   11.7528    1.2379   58.7961 N   0  0  0  0  0  0  0  0  0  0  0  0
   11.9711    1.9091   56.5714 O   0  0  0  0  0  0  0  0  0  0  0  0
   11.6952   -0.0684   63.4885 O   0  0  0  0  0  0  0  0  0  0  0  0
   11.1954    1.1729   63.9826 C   0  0  0  0  0  0  0  0  0  0  0  0
   10.0803    0.8927   64.9799 C   0  0  0  0  0  0  0  0  0  0  0  0
    8.9101    0.1610   64.3267 C   0  0  0  0  0  0  0  0  0  0  0  0
    7.9683   -0.4099   65.3765 C   0  0  0  0  0  0  0  0  0  0  0  0
    8.1300   -3.8289   63.6713 C   0  0  0  0  0  0  0  0  0  0  0  0
    5.7821   -3.3329   64.2099 C   0  0  0  0  0  0  0  0  0  0  0  0
    8.5390   -2.3899   63.9619 C   0  0  0  0  0  0  0  0  0  0  0  0
    6.1395   -1.8799   64.5166 C   0  0  0  0  0  0  0  0  0  0  0  0
    6.7343   -3.8628   63.2286 N   0  0  0  0  0  0  0  0  0  0  0  0
    7.5800   -1.8071   64.9819 N   0  0  0  0  0  0  0  0  0  0  0  0
    7.6544   -2.3867   65.8372 H   0  0  0  0  0  0  0  0  0  0  0  0
    6.8399   -3.3917   59.5868 C   0  0  0  0  0  0  0  0  0  0  0  0
    7.1620   -3.3052   60.9411 C   0  0  0  0  0  0  0  0  0  0  0  0
    5.7391   -4.1447   59.1783 C   0  0  0  0  0  0  0  0  0  0  0  0
    6.3834   -3.9720   61.8871 C   0  0  0  0  0  0  0  0  0  0  0  0
    4.9605   -4.8114   60.1244 C   0  0  0  0  0  0  0  0  0  0  0  0
    5.2827   -4.7251   61.4787 C   0  0  0  0  0  0  0  0  0  0  0  0
    3.6120   -5.7278   59.5469 Cl  0  0  0  0  0  0  0  0  0  0  0  0
    4.3252   -5.5480   62.6719 Cl  0  0  0  0  0  0  0  0  0  0  0  0
   10.3509    1.6396   58.8687 C   0  0  0  0  0  0  0  0  0  0  0  0
    9.5774    0.7355   58.0769 O   0  0  0  0  0  0  0  0  0  0  0  0
    9.3089   -0.4689   58.6574 C   0  0  0  0  0  0  0  0  0  0  0  0
    8.9285   -0.6486   59.8070 O   0  0  0  0  0  0  0  0  0  0  0  0
    9.5518   -1.5846   57.6713 C   0  0  0  0  0  0  0  0  0  0  0  0
   10.1537   -1.0867   56.3606 C   0  0  0  0  0  0  0  0  0  0  0  0
   11.6079   -1.5307   56.1781 C   0  0  0  0  0  0  0  0  0  0  0  0
   12.1201   -1.1891   54.7765 C   0  0  0  0  0  0  0  0  0  0  0  0
   13.6218   -0.8969   54.7915 C   0  0  0  0  0  0  0  0  0  0  0  0
   14.0207    0.2929   53.9133 C   0  0  0  0  0  0  0  0  0  0  0  0
   15.4942    0.7069   53.9774 C   0  0  0  0  0  0  0  0  0  0  0  0
   16.3009   -0.0703   55.0195 C   0  0  0  0  0  0  0  0  0  0  0  0
   17.1809    0.8666   55.8502 C   0  0  0  0  0  0  0  0  0  0  0  0
   19.5561    0.0695   56.1226 C   0  0  0  0  0  0  0  0  0  0  0  0
   18.1594    0.0811   56.7231 C   0  0  0  0  0  0  0  0  0  0  0  0
 24 25  2  0  0  0
 24 26  1  0  0  0
  1  2  2  0  0  0
  1  4  1  0  0  0
 25 27  1  0  0  0
  2  6  1  0  0  0
 26 28  2  0  0  0
  3  5  1  0  0  0
  3  6  2  0  0  0
  4  5  2  0  0  0
  4  8  1  0  0  0
 27 29  2  0  0  0
 27 21  1  0  0  0
  5 10  1  0  0  0
  6 12  1  0  0  0
 28 29  1  0  0  0
 28 30  1  0  0  0
 29 31  1  0  0  0
  7  9  1  0  0  0
  7 10  1  0  0  0
  7 11  2  0  0  0
 34 36  1  0  0  0
 34 35  2  0  0  0
 34 33  1  0  0  0
  8  9  1  0  0  0
 17 19  1  0  0  0
 17 21  1  0  0  0
 18 20  1  0  0  0
 18 21  1  0  0  0
 19 22  1  0  0  0
 20 22  1  0  0  0
 45 46  1  0  0  0
 36 37  1  0  0  0
 46 44  1  0  0  0
 37 38  1  0  0  0
 44 43  1  0  0  0
 38 39  1  0  0  0
 43 42  1  0  0  0
 39 40  1  0  0  0
 42 41  1  0  0  0
 40 41  1  0  0  0
 15 14  1  0  0  0
 15 16  1  0  0  0
 14 13  1  0  0  0
 16 22  1  0  0  0
 13 12  1  0  0  0
 32 10  1  0  0  0
 32 33  1  0  0  0
 22 23  1  0  0  0
M  CHG 1  22   1
M  END
> <minimizedAffinity>
-8.17432

> <CNNscore>
0.2300909907

> <CNNaffinity>
7.8516135216

> <CNN_VS>
1.8065855503

> <CNNaffinity_variance>
0.4372748435

$$$$



 46 49  0  0  0  0  0  0  0  0999 V2000
    7.0999   -3.3561   61.7158 C   0  0  0  0  0  0  0  0  0  0  0  0
    8.0259   -3.1358   60.7000 C   0  0  0  0  0  0  0  0  0  0  0  0
    9.2496   -1.6409   62.1526 C   0  0  0  0  0  0  0  0  0  0  0  0
    7.2349   -2.7076   62.9519 C   0  0  0  0  0  0  0  0  0  0  0  0
    8.3176   -1.8409   63.1839 C   0  0  0  0  0  0  0  0  0  0  0  0
    9.0998   -2.2797   60.9188 C   0  0  0  0  0  0  0  0  0  0  0  0
    7.4315   -1.2461   65.4221 C   0  0  0  0  0  0  0  0  0  0  0  0
    6.2725   -3.0098   64.0624 C   0  0  0  0  0  0  0  0  0  0  0  0
    6.1027   -1.7868   64.9383 C   0  0  0  0  0  0  0  0  0  0  0  0
    8.4543   -1.2113   64.4653 N   0  0  0  0  0  0  0  0  0  0  0  0
    7.5254   -0.7951   66.5657 O   0  0  0  0  0  0  0  0  0  0  0  0
   10.0102   -2.0663   59.9292 O   0  0  0  0  0  0  0  0  0  0  0  0
   10.7768   -0.8654   60.0007 C   0  0  0  0  0  0  0  0  0  0  0  0
   12.0760   -1.1539   60.7391 C   0  0  0  0  0  0  0  0  0  0  0  0
   12.9477    0.0942   60.8559 C   0  0  0  0  0  0  0  0  0  0  0  0
   14.4220   -0.2538   60.7139 C   0  0  0  0  0  0  0  0  0  0  0  0
   15.6026   -0.1849   57.0773 C   0  0  0  0  0  0  0  0  0  0  0  0
   16.5817    1.7395   58.2550 C   0  0  0  0  0  0  0  0  0  0  0  0
   15.1645   -0.8146   58.3942 C   0  0  0  0  0  0  0  0  0  0  0  0
   16.1618    1.1535   59.6015 C   0  0  0  0  0  0  0  0  0  0  0  0
   16.7882    0.6455   57.3006 N   0  0  0  0  0  0  0  0  0  0  0  0
   14.9324    0.2885   59.4086 N   0  0  0  0  0  0  0  0  0  0  0  0
   14.1856    0.8990   59.0305 H   0  0  0  0  0  0  0  0  0  0  0  0
   19.9964    0.3322   55.5385 C   0  0  0  0  0  0  0  0  0  0  0  0
   18.7095    0.7495   55.8779 C   0  0  0  0  0  0  0  0  0  0  0  0
   20.6452   -0.6290   56.3135 C   0  0  0  0  0  0  0  0  0  0  0  0
   18.0713    0.2057   56.9927 C   0  0  0  0  0  0  0  0  0  0  0  0
   20.0069   -1.1728   57.4284 C   0  0  0  0  0  0  0  0  0  0  0  0
   18.7201   -0.7554   57.7679 C   0  0  0  0  0  0  0  0  0  0  0  0
   20.8711   -2.3583   58.3446 Cl  0  0  0  0  0  0  0  0  0  0  0  0
   17.9087   -1.4208   59.1522 Cl  0  0  0  0  0  0  0  0  0  0  0  0
    9.7012   -0.5227   64.7860 C   0  0  0  0  0  0  0  0  0  0  0  0
    9.6646    0.7804   64.2001 O   0  0  0  0  0  0  0  0  0  0  0  0
   10.8451    1.2218   63.6797 C   0  0  0  0  0  0  0  0  0  0  0  0
   11.9633    0.9758   64.1131 O   0  0  0  0  0  0  0  0  0  0  0  0
   10.5872    2.0809   62.4666 C   0  0  0  0  0  0  0  0  0  0  0  0
    9.2232    1.8117   61.8380 C   0  0  0  0  0  0  0  0  0  0  0  0
    9.0674    2.4798   60.4688 C   0  0  0  0  0  0  0  0  0  0  0  0
   10.4305    2.7770   59.8386 C   0  0  0  0  0  0  0  0  0  0  0  0
   10.5072    2.2427   58.4070 C   0  0  0  0  0  0  0  0  0  0  0  0
   11.9392    1.9880   57.9268 C   0  0  0  0  0  0  0  0  0  0  0  0
   12.0790    1.1240   56.6696 C   0  0  0  0  0  0  0  0  0  0  0  0
   11.8203   -0.3630   56.9200 C   0  0  0  0  0  0  0  0  0  0  0  0
   11.3145   -1.0582   55.6539 C   0  0  0  0  0  0  0  0  0  0  0  0
   13.4432   -2.1921   54.9232 C   0  0  0  0  0  0  0  0  0  0  0  0
   12.4064   -1.1322   54.5868 C   0  0  0  0  0  0  0  0  0  0  0  0
 24 25  2  0  0  0
 24 26  1  0  0  0
  1  2  2  0  0  0
  1  4  1  0  0  0
 25 27  1  0  0  0
  2  6  1  0  0  0
 26 28  2  0  0  0
  3  5  1  0  0  0
  3  6  2  0  0  0
  4  5  2  0  0  0
  4  8  1  0  0  0
 27 29  2  0  0  0
 27 21  1  0  0  0
  5 10  1  0  0  0
  6 12  1  0  0  0
 28 29  1  0  0  0
 28 30  1  0  0  0
 29 31  1  0  0  0
  7  9  1  0  0  0
  7 10  1  0  0  0
  7 11  2  0  0  0
 34 36  1  0  0  0
 34 35  2  0  0  0
 34 33  1  0  0  0
  8  9  1  0  0  0
 17 19  1  0  0  0
 17 21  1  0  0  0
 18 20  1  0  0  0
 18 21  1  0  0  0
 19 22  1  0  0  0
 20 22  1  0  0  0
 45 46  1  0  0  0
 36 37  1  0  0  0
 46 44  1  0  0  0
 37 38  1  0  0  0
 44 43  1  0  0  0
 38 39  1  0  0  0
 43 42  1  0  0  0
 39 40  1  0  0  0
 42 41  1  0  0  0
 40 41  1  0  0  0
 15 14  1  0  0  0
 15 16  1  0  0  0
 14 13  1  0  0  0
 16 22  1  0  0  0
 13 12  1  0  0  0
 32 10  1  0  0  0
 32 33  1  0  0  0
 22 23  1  0  0  0
M  CHG 1  22   1
M  END
> <minimizedAffinity>
-8.86466

> <CNNscore>
0.1605901271

> <CNNaffinity>
7.7276792526

> <CNN_VS>
1.2409889698

> <CNNaffinity_variance>
0.7188985944

$$$$



 32 35  0  0  0  0  0  0  0  0999 V2000
   14.4774   -0.9216   61.1050 C   0  0  0  0  0  0  0  0  0  0  0  0
   13.1417   -0.5838   61.7632 C   0  0  0  0  0  0  0  0  0  0  0  0
   12.2645    0.2634   60.8525 C   0  0  0  0  0  0  0  0  0  0  0  0
   11.1003   -0.4783   60.5160 O   0  0  0  0  0  0  0  0  0  0  0  0
    8.6980   -2.3537   62.5582 C   0  0  0  0  0  0  0  0  0  0  0  0
    9.5654   -2.0181   61.5178 C   0  0  0  0  0  0  0  0  0  0  0  0
   10.0886    0.0706   62.6162 C   0  0  0  0  0  0  0  0  0  0  0  0
    8.5329   -1.4861   63.6432 C   0  0  0  0  0  0  0  0  0  0  0  0
    9.2352   -0.2746   63.6669 C   0  0  0  0  0  0  0  0  0  0  0  0
   10.2573   -0.8072   61.5456 C   0  0  0  0  0  0  0  0  0  0  0  0
    8.3650    0.3104   65.8913 C   0  0  0  0  0  0  0  0  0  0  0  0
    7.5354   -1.7794   64.7266 C   0  0  0  0  0  0  0  0  0  0  0  0
    7.9603   -1.1430   66.0415 C   0  0  0  0  0  0  0  0  0  0  0  0
    9.0627    0.6188   64.7392 N   0  0  0  0  0  0  0  0  0  0  0  0
    8.1612    1.1266   66.7901 O   0  0  0  0  0  0  0  0  0  0  0  0
    9.4747    1.5445   64.6622 H   0  0  0  0  0  0  0  0  0  0  0  0
   15.5026    0.1742   61.3560 C   0  0  0  0  0  0  0  0  0  0  0  0
   16.7377    1.7601   58.0935 C   0  0  0  0  0  0  0  0  0  0  0  0
   17.3152   -0.6308   58.0867 C   0  0  0  0  0  0  0  0  0  0  0  0
   15.8202    1.5544   59.2972 C   0  0  0  0  0  0  0  0  0  0  0  0
   16.4097   -0.8902   59.2847 C   0  0  0  0  0  0  0  0  0  0  0  0
   16.8066    0.5125   57.3256 N   0  0  0  0  0  0  0  0  0  0  0  0
   16.3200    0.3779   60.1114 N   0  0  0  0  0  0  0  0  0  0  0  0
   17.2770    0.6064   60.4300 H   0  0  0  0  0  0  0  0  0  0  0  0
   15.9819    0.4816   53.7458 C   0  0  0  0  0  0  0  0  0  0  0  0
   16.6913    0.6258   54.9382 C   0  0  0  0  0  0  0  0  0  0  0  0
   14.6497    0.0690   53.7724 C   0  0  0  0  0  0  0  0  0  0  0  0
   16.0684    0.3574   56.1571 C   0  0  0  0  0  0  0  0  0  0  0  0
   14.0269   -0.1995   54.9913 C   0  0  0  0  0  0  0  0  0  0  0  0
   14.7363   -0.0553   56.1837 C   0  0  0  0  0  0  0  0  0  0  0  0
   12.3744   -0.7085   54.9492 Cl  0  0  0  0  0  0  0  0  0  0  0  0
   13.9782   -0.3847   57.7114 Cl  0  0  0  0  0  0  0  0  0  0  0  0
 25 26  2  0  0  0
 25 27  1  0  0  0
  5  6  2  0  0  0
  5  8  1  0  0  0
 26 28  1  0  0  0
  6 10  1  0  0  0
 27 29  2  0  0  0
  7  9  1  0  0  0
  7 10  2  0  0  0
  8  9  2  0  0  0
  8 12  1  0  0  0
 28 30  2  0  0  0
 28 22  1  0  0  0
  9 14  1  0  0  0
 10  4  1  0  0  0
 29 30  1  0  0  0
 29 31  1  0  0  0
 30 32  1  0  0  0
 11 13  1  0  0  0
 11 14  1  0  0  0
 11 15  2  0  0  0
 12 13  1  0  0  0
 18 20  1  0  0  0
 18 22  1  0  0  0
 19 21  1  0  0  0
 19 22  1  0  0  0
 20 23  1  0  0  0
 21 23  1  0  0  0
  1  2  1  0  0  0
  1 17  1  0  0  0
  2  3  1  0  0  0
 17 23  1  0  0  0
  3  4  1  0  0  0
 14 16  1  0  0  0
 23 24  1  0  0  0
M  CHG 1  23   1
M  END
> <minimizedAffinity>
-9.51266

> <CNNscore>
0.4609662890

> <CNNaffinity>
7.1975755692

> <CNN_VS>
3.3178396225

> <CNNaffinity_variance>
0.0219487064

$$$$



 32 35  0  0  0  0  0  0  0  0999 V2000
   11.4755    0.5777   62.5853 C   0  0  0  0  0  0  0  0  0  0  0  0
   10.9269    1.8336   61.9121 C   0  0  0  0  0  0  0  0  0  0  0  0
   10.9005    1.6935   60.3968 C   0  0  0  0  0  0  0  0  0  0  0  0
   11.3198    0.3811   60.0493 O   0  0  0  0  0  0  0  0  0  0  0  0
   13.4273    0.4877   57.0483 C   0  0  0  0  0  0  0  0  0  0  0  0
   12.3147    0.6009   57.8831 C   0  0  0  0  0  0  0  0  0  0  0  0
   13.6362   -0.1548   59.7607 C   0  0  0  0  0  0  0  0  0  0  0  0
   14.6564    0.0682   57.5681 C   0  0  0  0  0  0  0  0  0  0  0  0
   14.7543   -0.2491   58.9288 C   0  0  0  0  0  0  0  0  0  0  0  0
   12.4185    0.2778   59.2361 C   0  0  0  0  0  0  0  0  0  0  0  0
   17.1700   -0.6790   58.7652 C   0  0  0  0  0  0  0  0  0  0  0  0
   15.8424   -0.1529   56.6742 C   0  0  0  0  0  0  0  0  0  0  0  0
   17.1424    0.0521   57.4373 C   0  0  0  0  0  0  0  0  0  0  0  0
   15.9770   -0.6944   59.4622 N   0  0  0  0  0  0  0  0  0  0  0  0
   18.2177   -1.1386   59.2199 O   0  0  0  0  0  0  0  0  0  0  0  0
   15.9835   -1.0479   60.4147 H   0  0  0  0  0  0  0  0  0  0  0  0
   11.2488    0.6207   64.0891 C   0  0  0  0  0  0  0  0  0  0  0  0
    8.6559   -2.1803   63.7492 C   0  0  0  0  0  0  0  0  0  0  0  0
    8.6337   -1.3496   66.0642 C   0  0  0  0  0  0  0  0  0  0  0  0
    9.5023   -0.9874   63.3093 C   0  0  0  0  0  0  0  0  0  0  0  0
    9.4741   -0.1389   65.6763 C   0  0  0  0  0  0  0  0  0  0  0  0
    7.8481   -1.7918   64.9100 N   0  0  0  0  0  0  0  0  0  0  0  0
   10.3330   -0.5045   64.4812 N   0  0  0  0  0  0  0  0  0  0  0  0
   10.9453   -1.2865   64.7696 H   0  0  0  0  0  0  0  0  0  0  0  0
    4.2273   -2.2392   64.4793 C   0  0  0  0  0  0  0  0  0  0  0  0
    5.5856   -2.5187   64.6291 C   0  0  0  0  0  0  0  0  0  0  0  0
    3.7851   -0.9164   64.4634 C   0  0  0  0  0  0  0  0  0  0  0  0
    6.5017   -1.4753   64.7630 C   0  0  0  0  0  0  0  0  0  0  0  0
    4.7011    0.1270   64.5974 C   0  0  0  0  0  0  0  0  0  0  0  0
    6.0595   -0.1525   64.7472 C   0  0  0  0  0  0  0  0  0  0  0  0
    4.0824    1.7419   64.5707 Cl  0  0  0  0  0  0  0  0  0  0  0  0
    7.2157    1.1328   64.9154 Cl  0  0  0  0  0  0  0  0  0  0  0  0
 25 26  2  0  0  0
 25 27  1  0  0  0
  5  6  2  0  0  0
  5  8  1  0  0  0
 26 28  1  0  0  0
  6 10  1  0  0  0
 27 29  2  0  0  0
  7  9  1  0  0  0
  7 10  2  0  0  0
  8  9  2  0  0  0
  8 12  1  0  0  0
 28 30  2  0  0  0
 28 22  1  0  0  0
  9 14  1  0  0  0
 10  4  1  0  0  0
 29 30  1  0  0  0
 29 31  1  0  0  0
 30 32  1  0  0  0
 11 13  1  0  0  0
 11 14  1  0  0  0
 11 15  2  0  0  0
 12 13  1  0  0  0
 18 20  1  0  0  0
 18 22  1  0  0  0
 19 21  1  0  0  0
 19 22  1  0  0  0
 20 23  1  0  0  0
 21 23  1  0  0  0
  1  2  1  0  0  0
  1 17  1  0  0  0
  2  3  1  0  0  0
 17 23  1  0  0  0
  3  4  1  0  0  0
 14 16  1  0  0  0
 23 24  1  0  0  0
M  CHG 1  23   1
M  END
> <minimizedAffinity>
-9.01573

> <CNNscore>
0.3900383413

> <CNNaffinity>
6.9199590683

> <CNN_VS>
2.6990494728

> <CNNaffinity_variance>
0.0187854581

$$$$



 32 35  0  0  0  0  0  0  0  0999 V2000
   11.2766    0.5029   63.3703 C   0  0  0  0  0  0  0  0  0  0  0  0
   10.3356    0.6384   64.5650 C   0  0  0  0  0  0  0  0  0  0  0  0
    8.8779    0.6879   64.1299 C   0  0  0  0  0  0  0  0  0  0  0  0
    8.0533    0.4127   65.2538 O   0  0  0  0  0  0  0  0  0  0  0  0
    4.4627   -0.0467   64.6576 C   0  0  0  0  0  0  0  0  0  0  0  0
    5.6908    0.5698   64.9010 C   0  0  0  0  0  0  0  0  0  0  0  0
    6.7892   -1.5830   64.8600 C   0  0  0  0  0  0  0  0  0  0  0  0
    4.3924   -1.4347   64.4972 C   0  0  0  0  0  0  0  0  0  0  0  0
    5.5627   -2.1976   64.5969 C   0  0  0  0  0  0  0  0  0  0  0  0
    6.8513   -0.1972   65.0045 C   0  0  0  0  0  0  0  0  0  0  0  0
    4.3780   -4.2829   64.0533 C   0  0  0  0  0  0  0  0  0  0  0  0
    3.0726   -2.1308   64.3298 C   0  0  0  0  0  0  0  0  0  0  0  0
    3.2371   -3.4235   63.5448 C   0  0  0  0  0  0  0  0  0  0  0  0
    5.5056   -3.5962   64.4610 N   0  0  0  0  0  0  0  0  0  0  0  0
    4.3214   -5.5118   64.0084 O   0  0  0  0  0  0  0  0  0  0  0  0
    6.3416   -4.1327   64.6751 H   0  0  0  0  0  0  0  0  0  0  0  0
   10.7060    1.1992   62.1438 C   0  0  0  0  0  0  0  0  0  0  0  0
   12.4235    2.1323   58.8477 C   0  0  0  0  0  0  0  0  0  0  0  0
   13.4694    0.0940   59.7429 C   0  0  0  0  0  0  0  0  0  0  0  0
   11.2766    2.0061   59.8486 C   0  0  0  0  0  0  0  0  0  0  0  0
   12.3467   -0.0797   60.7586 C   0  0  0  0  0  0  0  0  0  0  0  0
   12.9598    0.7972   58.5636 N   0  0  0  0  0  0  0  0  0  0  0  0
   11.7704    1.2842   61.0862 N   0  0  0  0  0  0  0  0  0  0  0  0
   12.5340    1.8519   61.4916 H   0  0  0  0  0  0  0  0  0  0  0  0
   10.9049   -0.8959   56.0324 C   0  0  0  0  0  0  0  0  0  0  0  0
   11.2841   -0.2260   57.1956 C   0  0  0  0  0  0  0  0  0  0  0  0
   11.8598   -1.2091   55.0651 C   0  0  0  0  0  0  0  0  0  0  0  0
   12.6184    0.1306   57.3916 C   0  0  0  0  0  0  0  0  0  0  0  0
   13.1940   -0.8524   55.2610 C   0  0  0  0  0  0  0  0  0  0  0  0
   13.5733   -0.1825   56.4243 C   0  0  0  0  0  0  0  0  0  0  0  0
   14.3234   -1.2707   54.0197 Cl  0  0  0  0  0  0  0  0  0  0  0  0
   15.2297    0.2699   56.6865 Cl  0  0  0  0  0  0  0  0  0  0  0  0
 25 26  2  0  0  0
 25 27  1  0  0  0
  5  6  2  0  0  0
  5  8  1  0  0  0
 26 28  1  0  0  0
  6 10  1  0  0  0
 27 29  2  0  0  0
  7  9  1  0  0  0
  7 10  2  0  0  0
  8  9  2  0  0  0
  8 12  1  0  0  0
 28 30  2  0  0  0
 28 22  1  0  0  0
  9 14  1  0  0  0
 10  4  1  0  0  0
 29 30  1  0  0  0
 29 31  1  0  0  0
 30 32  1  0  0  0
 11 13  1  0  0  0
 11 14  1  0  0  0
 11 15  2  0  0  0
 12 13  1  0  0  0
 18 20  1  0  0  0
 18 22  1  0  0  0
 19 21  1  0  0  0
 19 22  1  0  0  0
 20 23  1  0  0  0
 21 23  1  0  0  0
  1  2  1  0  0  0
  1 17  1  0  0  0
  2  3  1  0  0  0
 17 23  1  0  0  0
  3  4  1  0  0  0
 14 16  1  0  0  0
 23 24  1  0  0  0
M  CHG 1  23   1
M  END
> <minimizedAffinity>
-9.51972

> <CNNscore>
0.3862151802

> <CNNaffinity>
6.5739350319

> <CNN_VS>
2.5389535427

> <CNNaffinity_variance>
0.0761713311

$$$$



 32 35  0  0  0  0  0  0  0  0999 V2000
   15.1804   -0.3113   60.5530 C   0  0  0  0  0  0  0  0  0  0  0  0
   16.4861    0.1497   59.9097 C   0  0  0  0  0  0  0  0  0  0  0  0
   17.1467   -0.9678   59.1150 C   0  0  0  0  0  0  0  0  0  0  0  0
   17.7403   -0.4136   57.9491 O   0  0  0  0  0  0  0  0  0  0  0  0
   16.4722    0.9227   54.7766 C   0  0  0  0  0  0  0  0  0  0  0  0
   17.3171    0.6741   55.8591 C   0  0  0  0  0  0  0  0  0  0  0  0
   15.6594   -0.7950   56.8266 C   0  0  0  0  0  0  0  0  0  0  0  0
   15.2212    0.3006   54.7039 C   0  0  0  0  0  0  0  0  0  0  0  0
   14.8220   -0.5612   55.7332 C   0  0  0  0  0  0  0  0  0  0  0  0
   16.9104   -0.1811   56.8832 C   0  0  0  0  0  0  0  0  0  0  0  0
   12.7225   -1.1319   54.5871 C   0  0  0  0  0  0  0  0  0  0  0  0
   14.2563    0.6246   53.6001 C   0  0  0  0  0  0  0  0  0  0  0  0
   13.3315   -0.5519   53.3256 C   0  0  0  0  0  0  0  0  0  0  0  0
   13.5583   -1.1764   55.6866 N   0  0  0  0  0  0  0  0  0  0  0  0
   11.5896   -1.6138   54.5865 O   0  0  0  0  0  0  0  0  0  0  0  0
   13.2415   -1.6827   56.5086 H   0  0  0  0  0  0  0  0  0  0  0  0
   13.9776    0.1946   59.7706 C   0  0  0  0  0  0  0  0  0  0  0  0
   11.8895    0.3235   62.9812 C   0  0  0  0  0  0  0  0  0  0  0  0
   10.5082    1.0992   61.0998 C   0  0  0  0  0  0  0  0  0  0  0  0
   12.9475   -0.2014   62.0126 C   0  0  0  0  0  0  0  0  0  0  0  0
   11.5307    0.5893   60.0914 C   0  0  0  0  0  0  0  0  0  0  0  0
   10.5801    0.2946   62.3214 N   0  0  0  0  0  0  0  0  0  0  0  0
   12.9035    0.6127   60.7351 N   0  0  0  0  0  0  0  0  0  0  0  0
   13.1092    1.5945   60.9867 H   0  0  0  0  0  0  0  0  0  0  0  0
    8.7253   -2.8589   61.9875 C   0  0  0  0  0  0  0  0  0  0  0  0
    9.6260   -1.8223   61.7428 C   0  0  0  0  0  0  0  0  0  0  0  0
    7.8683   -2.7934   63.0861 C   0  0  0  0  0  0  0  0  0  0  0  0
    9.6696   -0.7201   62.5968 C   0  0  0  0  0  0  0  0  0  0  0  0
    7.9120   -1.6913   63.9401 C   0  0  0  0  0  0  0  0  0  0  0  0
    8.8127   -0.6547   63.6954 C   0  0  0  0  0  0  0  0  0  0  0  0
    6.8222   -1.6774   65.2831 Cl  0  0  0  0  0  0  0  0  0  0  0  0
    8.8821    0.7260   64.7471 Cl  0  0  0  0  0  0  0  0  0  0  0  0
 25 26  2  0  0  0
 25 27  1  0  0  0
  5  6  2  0  0  0
  5  8  1  0  0  0
 26 28  1  0  0  0
  6 10  1  0  0  0
 27 29  2  0  0  0
  7  9  1  0  0  0
  7 10  2  0  0  0
  8  9  2  0  0  0
  8 12  1  0  0  0
 28 30  2  0  0  0
 28 22  1  0  0  0
  9 14  1  0  0  0
 10  4  1  0  0  0
 29 30  1  0  0  0
 29 31  1  0  0  0
 30 32  1  0  0  0
 11 13  1  0  0  0
 11 14  1  0  0  0
 11 15  2  0  0  0
 12 13  1  0  0  0
 18 20  1  0  0  0
 18 22  1  0  0  0
 19 21  1  0  0  0
 19 22  1  0  0  0
 20 23  1  0  0  0
 21 23  1  0  0  0
  1  2  1  0  0  0
  1 17  1  0  0  0
  2  3  1  0  0  0
 17 23  1  0  0  0
  3  4  1  0  0  0
 14 16  1  0  0  0
 23 24  1  0  0  0
M  CHG 1  23   1
M  END
> <minimizedAffinity>
-9.82677

> <CNNscore>
0.3742798865

> <CNNaffinity>
7.0844550133

> <CNN_VS>
2.6515691280

> <CNNaffinity_variance>
0.0195717625

$$$$



 32 35  0  0  0  0  0  0  0  0999 V2000
   14.0557   -0.7506   61.4034 C   0  0  0  0  0  0  0  0  0  0  0  0
   12.9066   -0.1984   62.2436 C   0  0  0  0  0  0  0  0  0  0  0  0
   11.5539   -0.5051   61.6169 C   0  0  0  0  0  0  0  0  0  0  0  0
   10.5907   -0.6507   62.6513 O   0  0  0  0  0  0  0  0  0  0  0  0
    8.4686   -3.1349   60.9828 C   0  0  0  0  0  0  0  0  0  0  0  0
    9.5248   -2.2578   61.2331 C   0  0  0  0  0  0  0  0  0  0  0  0
    8.5341   -1.6566   63.3543 C   0  0  0  0  0  0  0  0  0  0  0  0
    7.4461   -3.2910   61.9248 C   0  0  0  0  0  0  0  0  0  0  0  0
    7.4873   -2.5493   63.1121 C   0  0  0  0  0  0  0  0  0  0  0  0
    9.5560   -1.5183   62.4154 C   0  0  0  0  0  0  0  0  0  0  0  0
    5.4613   -3.6346   63.9869 C   0  0  0  0  0  0  0  0  0  0  0  0
    6.2519   -4.1548   61.6382 C   0  0  0  0  0  0  0  0  0  0  0  0
    5.6560   -4.7011   62.9270 C   0  0  0  0  0  0  0  0  0  0  0  0
    6.4553   -2.6775   64.0590 N   0  0  0  0  0  0  0  0  0  0  0  0
    4.5243   -3.6889   64.7834 O   0  0  0  0  0  0  0  0  0  0  0  0
    6.4397   -2.0289   64.8410 H   0  0  0  0  0  0  0  0  0  0  0  0
   15.2611    0.1765   61.4500 C   0  0  0  0  0  0  0  0  0  0  0  0
   15.9815    1.3357   57.8693 C   0  0  0  0  0  0  0  0  0  0  0  0
   16.6483   -1.0212   58.0939 C   0  0  0  0  0  0  0  0  0  0  0  0
   15.2433    1.2738   59.2050 C   0  0  0  0  0  0  0  0  0  0  0  0
   15.9234   -1.1368   59.4294 C   0  0  0  0  0  0  0  0  0  0  0  0
   15.9965   -0.0020   57.2684 N   0  0  0  0  0  0  0  0  0  0  0  0
   15.8948    0.2288   60.0883 N   0  0  0  0  0  0  0  0  0  0  0  0
   16.8761    0.5188   60.2386 H   0  0  0  0  0  0  0  0  0  0  0  0
   14.7747   -0.8506   53.9093 C   0  0  0  0  0  0  0  0  0  0  0  0
   15.6293   -0.5221   54.9617 C   0  0  0  0  0  0  0  0  0  0  0  0
   13.4056   -0.9861   54.1390 C   0  0  0  0  0  0  0  0  0  0  0  0
   15.1146   -0.3290   56.2437 C   0  0  0  0  0  0  0  0  0  0  0  0
   12.8910   -0.7932   55.4211 C   0  0  0  0  0  0  0  0  0  0  0  0
   13.7455   -0.4646   56.4734 C   0  0  0  0  0  0  0  0  0  0  0  0
   11.1846   -0.9790   55.6334 Cl  0  0  0  0  0  0  0  0  0  0  0  0
   13.1239   -0.2202   58.0768 Cl  0  0  0  0  0  0  0  0  0  0  0  0
 25 26  2  0  0  0
 25 27  1  0  0  0
  5  6  2  0  0  0
  5  8  1  0  0  0
 26 28  1  0  0  0
  6 10  1  0  0  0
 27 29  2  0  0  0
  7  9  1  0  0  0
  7 10  2  0  0  0
  8  9  2  0  0  0
  8 12  1  0  0  0
 28 30  2  0  0  0
 28 22  1  0  0  0
  9 14  1  0  0  0
 10  4  1  0  0  0
 29 30  1  0  0  0
 29 31  1  0  0  0
 30 32  1  0  0  0
 11 13  1  0  0  0
 11 14  1  0  0  0
 11 15  2  0  0  0
 12 13  1  0  0  0
 18 20  1  0  0  0
 18 22  1  0  0  0
 19 21  1  0  0  0
 19 22  1  0  0  0
 20 23  1  0  0  0
 21 23  1  0  0  0
  1  2  1  0  0  0
  1 17  1  0  0  0
  2  3  1  0  0  0
 17 23  1  0  0  0
  3  4  1  0  0  0
 14 16  1  0  0  0
 23 24  1  0  0  0
M  CHG 1  23   1
M  END
> <minimizedAffinity>
-8.72164

> <CNNscore>
0.3635506928

> <CNNaffinity>
6.9461774826

> <CNN_VS>
2.5252876282

> <CNNaffinity_variance>
0.0358190611

$$$$



 32 35  0  0  0  0  0  0  0  0999 V2000
   14.5163   -0.6594   61.1211 C   0  0  0  0  0  0  0  0  0  0  0  0
   13.5534   -0.5829   62.3036 C   0  0  0  0  0  0  0  0  0  0  0  0
   12.2955    0.1998   61.9546 C   0  0  0  0  0  0  0  0  0  0  0  0
   11.1908   -0.3783   62.6359 O   0  0  0  0  0  0  0  0  0  0  0  0
    8.3192   -2.4640   61.7072 C   0  0  0  0  0  0  0  0  0  0  0  0
    9.2507   -1.7723   62.4826 C   0  0  0  0  0  0  0  0  0  0  0  0
   10.3640   -1.0074   60.4780 C   0  0  0  0  0  0  0  0  0  0  0  0
    8.3942   -2.4182   60.3110 C   0  0  0  0  0  0  0  0  0  0  0  0
    9.4197   -1.6838   59.7021 C   0  0  0  0  0  0  0  0  0  0  0  0
   10.2725   -1.0475   61.8691 C   0  0  0  0  0  0  0  0  0  0  0  0
    8.5614   -2.1515   57.4456 C   0  0  0  0  0  0  0  0  0  0  0  0
    7.4634   -3.2295   59.4567 C   0  0  0  0  0  0  0  0  0  0  0  0
    7.2598   -2.5713   58.1003 C   0  0  0  0  0  0  0  0  0  0  0  0
    9.5227   -1.6465   58.3001 N   0  0  0  0  0  0  0  0  0  0  0  0
    8.6984   -2.1765   56.2224 O   0  0  0  0  0  0  0  0  0  0  0  0
   10.3518   -1.2241   57.8919 H   0  0  0  0  0  0  0  0  0  0  0  0
   15.7261    0.2361   61.3430 C   0  0  0  0  0  0  0  0  0  0  0  0
   16.7675    1.7357   57.9738 C   0  0  0  0  0  0  0  0  0  0  0  0
   17.3017   -0.6653   57.9774 C   0  0  0  0  0  0  0  0  0  0  0  0
   15.9292    1.5703   59.2399 C   0  0  0  0  0  0  0  0  0  0  0  0
   16.4740   -0.8847   59.2381 C   0  0  0  0  0  0  0  0  0  0  0  0
   16.7632    0.4725   57.2287 N   0  0  0  0  0  0  0  0  0  0  0  0
   16.4618    0.4006   60.0429 N   0  0  0  0  0  0  0  0  0  0  0  0
   17.4418    0.6172   60.2924 H   0  0  0  0  0  0  0  0  0  0  0  0
   15.7000    0.3897   53.7132 C   0  0  0  0  0  0  0  0  0  0  0  0
   16.4899    0.5436   54.8525 C   0  0  0  0  0  0  0  0  0  0  0  0
   14.3661    0.0011   53.8367 C   0  0  0  0  0  0  0  0  0  0  0  0
   15.9459    0.3088   56.1153 C   0  0  0  0  0  0  0  0  0  0  0  0
   13.8221   -0.2338   55.0995 C   0  0  0  0  0  0  0  0  0  0  0  0
   14.6120   -0.0799   56.2388 C   0  0  0  0  0  0  0  0  0  0  0  0
   12.1625   -0.7144   55.1777 Cl  0  0  0  0  0  0  0  0  0  0  0  0
   13.9528   -0.3676   57.8199 Cl  0  0  0  0  0  0  0  0  0  0  0  0
 25 26  2  0  0  0
 25 27  1  0  0  0
  5  6  2  0  0  0
  5  8  1  0  0  0
 26 28  1  0  0  0
  6 10  1  0  0  0
 27 29  2  0  0  0
  7  9  1  0  0  0
  7 10  2  0  0  0
  8  9  2  0  0  0
  8 12  1  0  0  0
 28 30  2  0  0  0
 28 22  1  0  0  0
  9 14  1  0  0  0
 10  4  1  0  0  0
 29 30  1  0  0  0
 29 31  1  0  0  0
 30 32  1  0  0  0
 11 13  1  0  0  0
 11 14  1  0  0  0
 11 15  2  0  0  0
 12 13  1  0  0  0
 18 20  1  0  0  0
 18 22  1  0  0  0
 19 21  1  0  0  0
 19 22  1  0  0  0
 20 23  1  0  0  0
 21 23  1  0  0  0
  1  2  1  0  0  0
  1 17  1  0  0  0
  2  3  1  0  0  0
 17 23  1  0  0  0
  3  4  1  0  0  0
 14 16  1  0  0  0
 23 24  1  0  0  0
M  CHG 1  23   1
M  END
> <minimizedAffinity>
-9.08482

> <CNNscore>
0.3603095114

> <CNNaffinity>
7.1791253090

> <CNN_VS>
2.5867071152

> <CNNaffinity_variance>
0.1070703045

$$$$



 32 35  0  0  0  0  0  0  0  0999 V2000
   14.7801   -0.8247   61.6990 C   0  0  0  0  0  0  0  0  0  0  0  0
   13.3928   -0.3095   62.0748 C   0  0  0  0  0  0  0  0  0  0  0  0
   12.5105   -0.1242   60.8485 C   0  0  0  0  0  0  0  0  0  0  0  0
   11.3725    0.6445   61.2130 O   0  0  0  0  0  0  0  0  0  0  0  0
    9.0097   -1.7506   62.6756 C   0  0  0  0  0  0  0  0  0  0  0  0
    9.9140   -1.1641   61.7891 C   0  0  0  0  0  0  0  0  0  0  0  0
   10.1735    0.7168   63.2850 C   0  0  0  0  0  0  0  0  0  0  0  0
    8.6939   -1.1146   63.8810 C   0  0  0  0  0  0  0  0  0  0  0  0
    9.2833    0.1200   64.1809 C   0  0  0  0  0  0  0  0  0  0  0  0
   10.4927    0.0683   62.0922 C   0  0  0  0  0  0  0  0  0  0  0  0
    8.2131    0.2152   66.3929 C   0  0  0  0  0  0  0  0  0  0  0  0
    7.6537   -1.6773   64.8061 C   0  0  0  0  0  0  0  0  0  0  0  0
    7.9287   -1.2668   66.2450 C   0  0  0  0  0  0  0  0  0  0  0  0
    8.9588    0.7832   65.3778 N   0  0  0  0  0  0  0  0  0  0  0  0
    7.8763    0.8326   67.4033 O   0  0  0  0  0  0  0  0  0  0  0  0
    9.2919    1.7350   65.5034 H   0  0  0  0  0  0  0  0  0  0  0  0
   15.7297    0.3273   61.4062 C   0  0  0  0  0  0  0  0  0  0  0  0
   15.7886    1.3791   57.7218 C   0  0  0  0  0  0  0  0  0  0  0  0
   16.3450   -1.0117   57.8777 C   0  0  0  0  0  0  0  0  0  0  0  0
   15.3296    1.3866   59.1786 C   0  0  0  0  0  0  0  0  0  0  0  0
   15.8957   -1.0587   59.3331 C   0  0  0  0  0  0  0  0  0  0  0  0
   15.6035    0.0335   57.1687 N   0  0  0  0  0  0  0  0  0  0  0  0
   16.0808    0.3165   59.9449 N   0  0  0  0  0  0  0  0  0  0  0  0
   17.0878    0.5454   59.8894 H   0  0  0  0  0  0  0  0  0  0  0  0
   12.2711   -1.1179   56.1366 C   0  0  0  0  0  0  0  0  0  0  0  0
   13.3798   -0.8168   56.9276 C   0  0  0  0  0  0  0  0  0  0  0  0
   12.2995   -0.8550   54.7670 C   0  0  0  0  0  0  0  0  0  0  0  0
   14.5169   -0.2529   56.3491 C   0  0  0  0  0  0  0  0  0  0  0  0
   13.4365   -0.2910   54.1885 C   0  0  0  0  0  0  0  0  0  0  0  0
   14.5453    0.0101   54.9795 C   0  0  0  0  0  0  0  0  0  0  0  0
   13.4012    0.0094   52.4855 Cl  0  0  0  0  0  0  0  0  0  0  0  0
   15.9704    0.7126   54.2777 Cl  0  0  0  0  0  0  0  0  0  0  0  0
 25 26  2  0  0  0
 25 27  1  0  0  0
  5  6  2  0  0  0
  5  8  1  0  0  0
 26 28  1  0  0  0
  6 10  1  0  0  0
 27 29  2  0  0  0
  7  9  1  0  0  0
  7 10  2  0  0  0
  8  9  2  0  0  0
  8 12  1  0  0  0
 28 30  2  0  0  0
 28 22  1  0  0  0
  9 14  1  0  0  0
 10  4  1  0  0  0
 29 30  1  0  0  0
 29 31  1  0  0  0
 30 32  1  0  0  0
 11 13  1  0  0  0
 11 14  1  0  0  0
 11 15  2  0  0  0
 12 13  1  0  0  0
 18 20  1  0  0  0
 18 22  1  0  0  0
 19 21  1  0  0  0
 19 22  1  0  0  0
 20 23  1  0  0  0
 21 23  1  0  0  0
  1  2  1  0  0  0
  1 17  1  0  0  0
  2  3  1  0  0  0
 17 23  1  0  0  0
  3  4  1  0  0  0
 14 16  1  0  0  0
 23 24  1  0  0  0
M  CHG 1  23   1
M  END
> <minimizedAffinity>
-8.66441

> <CNNscore>
0.3447762728

> <CNNaffinity>
6.9462189674

> <CNN_VS>
2.3948915005

> <CNNaffinity_variance>
0.0468416810

$$$$



 32 35  0  0  0  0  0  0  0  0999 V2000
   11.9083    0.4142   61.6901 C   0  0  0  0  0  0  0  0  0  0  0  0
   13.2970   -0.2202   61.6757 C   0  0  0  0  0  0  0  0  0  0  0  0
   14.0827    0.1744   60.4333 C   0  0  0  0  0  0  0  0  0  0  0  0
   15.1897   -0.7049   60.2911 O   0  0  0  0  0  0  0  0  0  0  0  0
   16.3198    0.3368   56.9600 C   0  0  0  0  0  0  0  0  0  0  0  0
   15.5025    0.1429   58.0744 C   0  0  0  0  0  0  0  0  0  0  0  0
   17.3181   -0.9637   59.2240 C   0  0  0  0  0  0  0  0  0  0  0  0
   17.6474   -0.1040   56.9767 C   0  0  0  0  0  0  0  0  0  0  0  0
   18.1416   -0.7520   58.1157 C   0  0  0  0  0  0  0  0  0  0  0  0
   16.0000   -0.5083   59.2032 C   0  0  0  0  0  0  0  0  0  0  0  0
   20.4019   -0.9331   57.1640 C   0  0  0  0  0  0  0  0  0  0  0  0
   18.5174    0.0069   55.7579 C   0  0  0  0  0  0  0  0  0  0  0  0
   19.9846    0.1107   56.1466 C   0  0  0  0  0  0  0  0  0  0  0  0
   19.4670   -1.2216   58.1398 N   0  0  0  0  0  0  0  0  0  0  0  0
   21.5368   -1.4100   57.1614 O   0  0  0  0  0  0  0  0  0  0  0  0
   19.7536   -1.8067   58.9195 H   0  0  0  0  0  0  0  0  0  0  0  0
   11.3909    0.5641   63.1130 C   0  0  0  0  0  0  0  0  0  0  0  0
    8.8828   -2.3156   62.7938 C   0  0  0  0  0  0  0  0  0  0  0  0
    9.2277   -1.8189   65.1780 C   0  0  0  0  0  0  0  0  0  0  0  0
    9.5968   -1.0234   62.4020 C   0  0  0  0  0  0  0  0  0  0  0  0
    9.9440   -0.5168   64.8405 C   0  0  0  0  0  0  0  0  0  0  0  0
    8.2725   -2.1431   64.1162 N   0  0  0  0  0  0  0  0  0  0  0  0
   10.5979   -0.6588   63.4797 N   0  0  0  0  0  0  0  0  0  0  0  0
   11.2789   -1.4345   63.5446 H   0  0  0  0  0  0  0  0  0  0  0  0
    5.1489   -0.3748   64.8990 C   0  0  0  0  0  0  0  0  0  0  0  0
    6.5069   -0.6613   64.7589 C   0  0  0  0  0  0  0  0  0  0  0  0
    4.1944   -1.3191   64.5212 C   0  0  0  0  0  0  0  0  0  0  0  0
    6.9102   -1.8922   64.2411 C   0  0  0  0  0  0  0  0  0  0  0  0
    4.5977   -2.5499   64.0033 C   0  0  0  0  0  0  0  0  0  0  0  0
    5.9556   -2.8364   63.8633 C   0  0  0  0  0  0  0  0  0  0  0  0
    3.3604   -3.6719   63.5542 Cl  0  0  0  0  0  0  0  0  0  0  0  0
    6.4776   -4.3634   63.2205 Cl  0  0  0  0  0  0  0  0  0  0  0  0
 25 26  2  0  0  0
 25 27  1  0  0  0
  5  6  2  0  0  0
  5  8  1  0  0  0
 26 28  1  0  0  0
  6 10  1  0  0  0
 27 29  2  0  0  0
  7  9  1  0  0  0
  7 10  2  0  0  0
  8  9  2  0  0  0
  8 12  1  0  0  0
 28 30  2  0  0  0
 28 22  1  0  0  0
  9 14  1  0  0  0
 10  4  1  0  0  0
 29 30  1  0  0  0
 29 31  1  0  0  0
 30 32  1  0  0  0
 11 13  1  0  0  0
 11 14  1  0  0  0
 11 15  2  0  0  0
 12 13  1  0  0  0
 18 20  1  0  0  0
 18 22  1  0  0  0
 19 21  1  0  0  0
 19 22  1  0  0  0
 20 23  1  0  0  0
 21 23  1  0  0  0
  1  2  1  0  0  0
  1 17  1  0  0  0
  2  3  1  0  0  0
 17 23  1  0  0  0
  3  4  1  0  0  0
 14 16  1  0  0  0
 23 24  1  0  0  0
M  CHG 1  23   1
M  END
> <minimizedAffinity>
-9.47880

> <CNNscore>
0.3266601861

> <CNNaffinity>
6.4128160477

> <CNN_VS>
2.0948116779

> <CNNaffinity_variance>
0.0387704037

$$$$



 32 35  0  0  0  0  0  0  0  0999 V2000
   11.1186    0.7904   63.3076 C   0  0  0  0  0  0  0  0  0  0  0  0
   10.0431    0.9026   64.3855 C   0  0  0  0  0  0  0  0  0  0  0  0
    9.3975   -0.4444   64.6781 C   0  0  0  0  0  0  0  0  0  0  0  0
    9.7925   -1.3706   63.6756 O   0  0  0  0  0  0  0  0  0  0  0  0
    7.7651   -3.1070   61.1590 C   0  0  0  0  0  0  0  0  0  0  0  0
    8.7765   -2.3377   61.7358 C   0  0  0  0  0  0  0  0  0  0  0  0
    7.8201   -2.7060   63.9249 C   0  0  0  0  0  0  0  0  0  0  0  0
    6.7834   -3.6949   61.9639 C   0  0  0  0  0  0  0  0  0  0  0  0
    6.8192   -3.4922   63.3492 C   0  0  0  0  0  0  0  0  0  0  0  0
    8.8024   -2.1356   63.1157 C   0  0  0  0  0  0  0  0  0  0  0  0
    4.8874   -4.9672   63.7234 C   0  0  0  0  0  0  0  0  0  0  0  0
    5.6324   -4.4465   61.3600 C   0  0  0  0  0  0  0  0  0  0  0  0
    5.1095   -5.5025   62.3224 C   0  0  0  0  0  0  0  0  0  0  0  0
    5.8266   -4.0572   64.1697 N   0  0  0  0  0  0  0  0  0  0  0  0
    3.9805   -5.3981   64.4357 O   0  0  0  0  0  0  0  0  0  0  0  0
    5.7983   -3.7803   65.1470 H   0  0  0  0  0  0  0  0  0  0  0  0
   10.6330    1.3731   61.9887 C   0  0  0  0  0  0  0  0  0  0  0  0
   12.6094    2.0960   58.7862 C   0  0  0  0  0  0  0  0  0  0  0  0
   13.4371    0.0033   59.7790 C   0  0  0  0  0  0  0  0  0  0  0  0
   11.3993    2.0817   59.7182 C   0  0  0  0  0  0  0  0  0  0  0  0
   12.2464   -0.0600   60.7280 C   0  0  0  0  0  0  0  0  0  0  0  0
   13.0546    0.7173   58.5587 N   0  0  0  0  0  0  0  0  0  0  0  0
   11.7611    1.3516   60.9960 N   0  0  0  0  0  0  0  0  0  0  0  0
   12.5419    1.8673   61.4366 H   0  0  0  0  0  0  0  0  0  0  0  0
   11.0260   -0.8794   55.9450 C   0  0  0  0  0  0  0  0  0  0  0  0
   11.3878   -0.2147   57.1168 C   0  0  0  0  0  0  0  0  0  0  0  0
   12.0075   -1.2762   55.0369 C   0  0  0  0  0  0  0  0  0  0  0  0
   12.7312    0.0531   57.3803 C   0  0  0  0  0  0  0  0  0  0  0  0
   13.3509   -1.0084   55.3004 C   0  0  0  0  0  0  0  0  0  0  0  0
   13.7127   -0.3437   56.4721 C   0  0  0  0  0  0  0  0  0  0  0  0
   14.5136   -1.5274   54.1299 Cl  0  0  0  0  0  0  0  0  0  0  0  0
   15.3800   -0.0011   56.8181 Cl  0  0  0  0  0  0  0  0  0  0  0  0
 25 26  2  0  0  0
 25 27  1  0  0  0
  5  6  2  0  0  0
  5  8  1  0  0  0
 26 28  1  0  0  0
  6 10  1  0  0  0
 27 29  2  0  0  0
  7  9  1  0  0  0
  7 10  2  0  0  0
  8  9  2  0  0  0
  8 12  1  0  0  0
 28 30  2  0  0  0
 28 22  1  0  0  0
  9 14  1  0  0  0
 10  4  1  0  0  0
 29 30  1  0  0  0
 29 31  1  0  0  0
 30 32  1  0  0  0
 11 13  1  0  0  0
 11 14  1  0  0  0
 11 15  2  0  0  0
 12 13  1  0  0  0
 18 20  1  0  0  0
 18 22  1  0  0  0
 19 21  1  0  0  0
 19 22  1  0  0  0
 20 23  1  0  0  0
 21 23  1  0  0  0
  1  2  1  0  0  0
  1 17  1  0  0  0
  2  3  1  0  0  0
 17 23  1  0  0  0
  3  4  1  0  0  0
 14 16  1  0  0  0
 23 24  1  0  0  0
M  CHG 1  23   1
M  END
> <minimizedAffinity>
-9.14806

> <CNNscore>
0.3046160042

> <CNNaffinity>
6.5246992111

> <CNN_VS>
1.9875278473

> <CNNaffinity_variance>
0.1866041720

$$$$



 22 24  0  0  0  0  0  0  0  0999 V2000
   15.4476   -0.0739   57.3419 C   0  0  0  0  0  0  0  0  0  0  0  0
   16.3082   -0.1774   56.2230 C   0  0  0  0  0  0  0  0  0  0  0  0
   16.2356    0.2000   58.4399 C   0  0  0  0  0  0  0  0  0  0  0  0
   17.5930    0.0427   56.6756 C   0  0  0  0  0  0  0  0  0  0  0  0
   14.0078   -0.2084   57.4640 C   0  0  0  0  0  0  0  0  0  0  0  0
   15.7694    0.3874   59.8365 C   0  0  0  0  0  0  0  0  0  0  0  0
   14.3959   -0.2874   59.9909 C   0  0  0  0  0  0  0  0  0  0  0  0
   13.4052    0.0533   58.8533 C   0  0  0  0  0  0  0  0  0  0  0  0
   18.8820    0.0586   55.9567 C   0  0  0  0  0  0  0  0  0  0  0  0
   17.5370    0.2739   58.0279 N   0  0  0  0  0  0  0  0  0  0  0  0
   13.2965   -0.4659   56.4962 O   0  0  0  0  0  0  0  0  0  0  0  0
   18.3307    0.4717   58.6224 H   0  0  0  0  0  0  0  0  0  0  0  0
   15.7372    0.7970   53.9845 C   0  0  0  0  0  0  0  0  0  0  0  0
   15.9183   -0.4689   54.8281 C   0  0  0  0  0  0  0  0  0  0  0  0
   12.9164    1.4975   58.9260 C   0  0  0  0  0  0  0  0  0  0  0  0
   10.5306    0.7988   58.6730 C   0  0  0  0  0  0  0  0  0  0  0  0
   11.0810    2.9135   59.8591 C   0  0  0  0  0  0  0  0  0  0  0  0
    9.1927    0.8190   59.3923 C   0  0  0  0  0  0  0  0  0  0  0  0
    9.7142    2.8248   60.5167 C   0  0  0  0  0  0  0  0  0  0  0  0
   11.5444    1.5123   59.5362 N   0  0  0  0  0  0  0  0  0  0  0  0
    8.7861    2.1626   59.6563 O   0  0  0  0  0  0  0  0  0  0  0  0
   11.6029    0.9974   60.4278 H   0  0  0  0  0  0  0  0  0  0  0  0
  1  2  1  0  0  0
  1  3  2  0  0  0
  1  5  1  0  0  0
  2  4  2  0  0  0
  2 14  1  0  0  0
  3  6  1  0  0  0
  3 10  1  0  0  0
  4  9  1  0  0  0
  4 10  1  0  0  0
  5  8  1  0  0  0
  5 11  2  0  0  0
  6  7  1  0  0  0
  7  8  1  0  0  0
 16 18  1  0  0  0
 16 20  1  0  0  0
 17 19  1  0  0  0
 17 20  1  0  0  0
 18 21  1  0  0  0
 19 21  1  0  0  0
  8 15  1  0  0  0
 13 14  1  0  0  0
 15 20  1  0  0  0
 10 12  1  0  0  0
 20 22  1  0  0  0
M  CHG 1  20   1
M  END
> <minimizedAffinity>
-7.64767

> <CNNscore>
0.7507557273

> <CNNaffinity>
6.2173681259

> <CNN_VS>
4.6677246094

> <CNNaffinity_variance>
0.1320740879

$$$$



 22 24  0  0  0  0  0  0  0  0999 V2000
    9.9310   -0.8475   63.6445 C   0  0  0  0  0  0  0  0  0  0  0  0
    9.2445   -1.7660   64.4741 C   0  0  0  0  0  0  0  0  0  0  0  0
   10.3921    0.1692   64.4539 C   0  0  0  0  0  0  0  0  0  0  0  0
    9.3150   -1.2811   65.7640 C   0  0  0  0  0  0  0  0  0  0  0  0
   10.1778   -0.8412   62.2144 C   0  0  0  0  0  0  0  0  0  0  0  0
   11.1645    1.3606   64.0215 C   0  0  0  0  0  0  0  0  0  0  0  0
   10.9178    1.5880   62.5205 C   0  0  0  0  0  0  0  0  0  0  0  0
   11.0457    0.3036   61.6685 C   0  0  0  0  0  0  0  0  0  0  0  0
    8.7823   -1.8208   67.0304 C   0  0  0  0  0  0  0  0  0  0  0  0
   10.0185   -0.1023   65.7406 N   0  0  0  0  0  0  0  0  0  0  0  0
    9.7605   -1.7336   61.4807 O   0  0  0  0  0  0  0  0  0  0  0  0
   10.2301    0.4705   66.5466 H   0  0  0  0  0  0  0  0  0  0  0  0
    7.1245   -2.7835   63.6040 C   0  0  0  0  0  0  0  0  0  0  0  0
    8.5718   -3.0117   64.0516 C   0  0  0  0  0  0  0  0  0  0  0  0
   12.4916   -0.1718   61.5534 C   0  0  0  0  0  0  0  0  0  0  0  0
   12.3773    0.1775   59.0817 C   0  0  0  0  0  0  0  0  0  0  0  0
   14.5852    0.1350   60.2241 C   0  0  0  0  0  0  0  0  0  0  0  0
   13.0527    0.9238   57.9438 C   0  0  0  0  0  0  0  0  0  0  0  0
   15.1467    0.8831   59.0268 C   0  0  0  0  0  0  0  0  0  0  0  0
   13.1219    0.4855   60.3595 N   0  0  0  0  0  0  0  0  0  0  0  0
   14.4258    0.5444   57.8411 O   0  0  0  0  0  0  0  0  0  0  0  0
   13.0649    1.5044   60.5082 H   0  0  0  0  0  0  0  0  0  0  0  0
  1  2  1  0  0  0
  1  3  2  0  0  0
  1  5  1  0  0  0
  2  4  2  0  0  0
  2 14  1  0  0  0
  3  6  1  0  0  0
  3 10  1  0  0  0
  4  9  1  0  0  0
  4 10  1  0  0  0
  5  8  1  0  0  0
  5 11  2  0  0  0
  6  7  1  0  0  0
  7  8  1  0  0  0
 16 18  1  0  0  0
 16 20  1  0  0  0
 17 19  1  0  0  0
 17 20  1  0  0  0
 18 21  1  0  0  0
 19 21  1  0  0  0
  8 15  1  0  0  0
 13 14  1  0  0  0
 15 20  1  0  0  0
 10 12  1  0  0  0
 20 22  1  0  0  0
M  CHG 1  20   1
M  END
> <minimizedAffinity>
-7.58537

> <CNNscore>
0.7439097166

> <CNNaffinity>
6.1280908585

> <CNN_VS>
4.5587463379

> <CNNaffinity_variance>
0.0732675344

$$$$



 22 24  0  0  0  0  0  0  0  0999 V2000
   14.0850   -0.0160   56.9717 C   0  0  0  0  0  0  0  0  0  0  0  0
   14.3867   -0.2753   55.6134 C   0  0  0  0  0  0  0  0  0  0  0  0
   15.2832    0.1699   57.6284 C   0  0  0  0  0  0  0  0  0  0  0  0
   15.7600   -0.2331   55.4859 C   0  0  0  0  0  0  0  0  0  0  0  0
   12.8197    0.0652   57.6777 C   0  0  0  0  0  0  0  0  0  0  0  0
   15.4625    0.4622   59.0725 C   0  0  0  0  0  0  0  0  0  0  0  0
   14.2044    0.0002   59.8272 C   0  0  0  0  0  0  0  0  0  0  0  0
   12.8818    0.4506   59.1641 C   0  0  0  0  0  0  0  0  0  0  0  0
   16.6281   -0.4260   54.3078 C   0  0  0  0  0  0  0  0  0  0  0  0
   16.2964    0.0411   56.7197 N   0  0  0  0  0  0  0  0  0  0  0  0
   11.7465   -0.1121   57.1070 O   0  0  0  0  0  0  0  0  0  0  0  0
   17.2824    0.1369   56.9222 H   0  0  0  0  0  0  0  0  0  0  0  0
   13.1590   -2.0404   54.3234 C   0  0  0  0  0  0  0  0  0  0  0  0
   13.4228   -0.5451   54.5266 C   0  0  0  0  0  0  0  0  0  0  0  0
   12.6471    1.9523   59.3049 C   0  0  0  0  0  0  0  0  0  0  0  0
   11.3084    1.0378   61.2064 C   0  0  0  0  0  0  0  0  0  0  0  0
   10.1998    2.4299   59.4701 C   0  0  0  0  0  0  0  0  0  0  0  0
   10.1466    1.3739   62.1258 C   0  0  0  0  0  0  0  0  0  0  0  0
    9.0949    2.6937   60.4791 C   0  0  0  0  0  0  0  0  0  0  0  0
   11.4824    2.1741   60.2264 N   0  0  0  0  0  0  0  0  0  0  0  0
    8.9539    1.5854   61.3690 O   0  0  0  0  0  0  0  0  0  0  0  0
   11.6869    3.0226   60.7757 H   0  0  0  0  0  0  0  0  0  0  0  0
  1  2  1  0  0  0
  1  3  2  0  0  0
  1  5  1  0  0  0
  2  4  2  0  0  0
  2 14  1  0  0  0
  3  6  1  0  0  0
  3 10  1  0  0  0
  4  9  1  0  0  0
  4 10  1  0  0  0
  5  8  1  0  0  0
  5 11  2  0  0  0
  6  7  1  0  0  0
  7  8  1  0  0  0
 16 18  1  0  0  0
 16 20  1  0  0  0
 17 19  1  0  0  0
 17 20  1  0  0  0
 18 21  1  0  0  0
 19 21  1  0  0  0
  8 15  1  0  0  0
 13 14  1  0  0  0
 15 20  1  0  0  0
 10 12  1  0  0  0
 20 22  1  0  0  0
M  CHG 1  20   1
M  END
> <minimizedAffinity>
-7.11778

> <CNNscore>
0.7107606530

> <CNNaffinity>
6.0122594833

> <CNN_VS>
4.2732772827

> <CNNaffinity_variance>
0.0303821266

$$$$



 22 24  0  0  0  0  0  0  0  0999 V2000
    9.6359   -1.4960   61.6587 C   0  0  0  0  0  0  0  0  0  0  0  0
    8.8029   -2.6331   61.5315 C   0  0  0  0  0  0  0  0  0  0  0  0
    9.5433   -1.0652   62.9653 C   0  0  0  0  0  0  0  0  0  0  0  0
    8.2339   -2.8615   62.7677 C   0  0  0  0  0  0  0  0  0  0  0  0
   10.4745   -0.8052   60.6966 C   0  0  0  0  0  0  0  0  0  0  0  0
   10.2396    0.1020   63.5617 C   0  0  0  0  0  0  0  0  0  0  0  0
   10.6374    1.0668   62.4318 C   0  0  0  0  0  0  0  0  0  0  0  0
   11.3119    0.3688   61.2278 C   0  0  0  0  0  0  0  0  0  0  0  0
    7.2918   -3.9034   63.2209 C   0  0  0  0  0  0  0  0  0  0  0  0
    8.6936   -1.9013   63.6347 N   0  0  0  0  0  0  0  0  0  0  0  0
   10.5548   -1.1707   59.5266 O   0  0  0  0  0  0  0  0  0  0  0  0
    8.4468   -1.8275   64.6126 H   0  0  0  0  0  0  0  0  0  0  0  0
    7.3715   -2.9444   59.4966 C   0  0  0  0  0  0  0  0  0  0  0  0
    8.5739   -3.4329   60.3105 C   0  0  0  0  0  0  0  0  0  0  0  0
   12.7176   -0.1252   61.5594 C   0  0  0  0  0  0  0  0  0  0  0  0
   14.9910   -0.3688   60.5511 C   0  0  0  0  0  0  0  0  0  0  0  0
   13.2549    0.9705   59.3788 C   0  0  0  0  0  0  0  0  0  0  0  0
   15.7025   -0.4969   59.2150 C   0  0  0  0  0  0  0  0  0  0  0  0
   14.0565    0.7737   58.1032 C   0  0  0  0  0  0  0  0  0  0  0  0
   13.5121   -0.2084   60.2879 N   0  0  0  0  0  0  0  0  0  0  0  0
   15.4481    0.6482   58.4001 O   0  0  0  0  0  0  0  0  0  0  0  0
   13.1974   -1.0535   59.7878 H   0  0  0  0  0  0  0  0  0  0  0  0
  1  2  1  0  0  0
  1  3  2  0  0  0
  1  5  1  0  0  0
  2  4  2  0  0  0
  2 14  1  0  0  0
  3  6  1  0  0  0
  3 10  1  0  0  0
  4  9  1  0  0  0
  4 10  1  0  0  0
  5  8  1  0  0  0
  5 11  2  0  0  0
  6  7  1  0  0  0
  7  8  1  0  0  0
 16 18  1  0  0  0
 16 20  1  0  0  0
 17 19  1  0  0  0
 17 20  1  0  0  0
 18 21  1  0  0  0
 19 21  1  0  0  0
  8 15  1  0  0  0
 13 14  1  0  0  0
 15 20  1  0  0  0
 10 12  1  0  0  0
 20 22  1  0  0  0
M  CHG 1  20   1
M  END
> <minimizedAffinity>
-6.93488

> <CNNscore>
0.6951168180

> <CNNaffinity>
5.8491463661

> <CNN_VS>
4.0658402443

> <CNNaffinity_variance>
0.0254954491

$$$$



 22 24  0  0  0  0  0  0  0  0999 V2000
   14.3075   -0.0947   57.0027 C   0  0  0  0  0  0  0  0  0  0  0  0
   13.1935   -0.6340   56.3162 C   0  0  0  0  0  0  0  0  0  0  0  0
   13.8591    0.3400   58.2320 C   0  0  0  0  0  0  0  0  0  0  0  0
   12.1029   -0.5153   57.1531 C   0  0  0  0  0  0  0  0  0  0  0  0
   15.6996    0.0451   56.6173 C   0  0  0  0  0  0  0  0  0  0  0  0
   14.6746    0.9828   59.2925 C   0  0  0  0  0  0  0  0  0  0  0  0
   15.9349    1.5835   58.6471 C   0  0  0  0  0  0  0  0  0  0  0  0
   16.6548    0.6194   57.6754 C   0  0  0  0  0  0  0  0  0  0  0  0
   10.6926   -0.9083   56.9653 C   0  0  0  0  0  0  0  0  0  0  0  0
   12.5202    0.0777   58.3190 N   0  0  0  0  0  0  0  0  0  0  0  0
   16.1087   -0.3254   55.5199 O   0  0  0  0  0  0  0  0  0  0  0  0
   11.9323    0.2831   59.1157 H   0  0  0  0  0  0  0  0  0  0  0  0
   13.6373   -2.6786   54.9344 C   0  0  0  0  0  0  0  0  0  0  0  0
   13.1849   -1.2151   54.9578 C   0  0  0  0  0  0  0  0  0  0  0  0
   17.3449   -0.5290   58.4066 C   0  0  0  0  0  0  0  0  0  0  0  0
   19.6672   -1.4353   58.5797 C   0  0  0  0  0  0  0  0  0  0  0  0
   19.1287    0.2643   56.8467 C   0  0  0  0  0  0  0  0  0  0  0  0
   20.8695   -1.8215   57.7352 C   0  0  0  0  0  0  0  0  0  0  0  0
   20.3593   -0.2094   56.0919 C   0  0  0  0  0  0  0  0  0  0  0  0
   18.5976   -0.8914   57.6620 N   0  0  0  0  0  0  0  0  0  0  0  0
   21.3489   -0.6942   57.0008 O   0  0  0  0  0  0  0  0  0  0  0  0
   18.3512   -1.6433   57.0007 H   0  0  0  0  0  0  0  0  0  0  0  0
  1  2  1  0  0  0
  1  3  2  0  0  0
  1  5  1  0  0  0
  2  4  2  0  0  0
  2 14  1  0  0  0
  3  6  1  0  0  0
  3 10  1  0  0  0
  4  9  1  0  0  0
  4 10  1  0  0  0
  5  8  1  0  0  0
  5 11  2  0  0  0
  6  7  1  0  0  0
  7  8  1  0  0  0
 16 18  1  0  0  0
 16 20  1  0  0  0
 17 19  1  0  0  0
 17 20  1  0  0  0
 18 21  1  0  0  0
 19 21  1  0  0  0
  8 15  1  0  0  0
 13 14  1  0  0  0
 15 20  1  0  0  0
 10 12  1  0  0  0
 20 22  1  0  0  0
M  CHG 1  20   1
M  END
> <minimizedAffinity>
-7.99471

> <CNNscore>
0.6224384904

> <CNNaffinity>
5.9183793068

> <CNN_VS>
3.6838271618

> <CNNaffinity_variance>
0.0753600597

$$$$



 22 24  0  0  0  0  0  0  0  0999 V2000
   14.5696    0.0822   58.9369 C   0  0  0  0  0  0  0  0  0  0  0  0
   15.1228    0.4003   57.6735 C   0  0  0  0  0  0  0  0  0  0  0  0
   15.5383    0.3395   59.8839 C   0  0  0  0  0  0  0  0  0  0  0  0
   16.4098    0.8468   57.8932 C   0  0  0  0  0  0  0  0  0  0  0  0
   13.2638   -0.4254   59.3152 C   0  0  0  0  0  0  0  0  0  0  0  0
   15.4120    0.1489   61.3504 C   0  0  0  0  0  0  0  0  0  0  0  0
   14.2847   -0.8624   61.6193 C   0  0  0  0  0  0  0  0  0  0  0  0
   12.9916   -0.5780   60.8200 C   0  0  0  0  0  0  0  0  0  0  0  0
   17.4458    1.3124   56.9506 C   0  0  0  0  0  0  0  0  0  0  0  0
   16.6520    0.8077   59.2441 N   0  0  0  0  0  0  0  0  0  0  0  0
   12.3973   -0.6716   58.4801 O   0  0  0  0  0  0  0  0  0  0  0  0
   17.5142    1.0853   59.6935 H   0  0  0  0  0  0  0  0  0  0  0  0
   14.7113   -1.0754   55.6887 C   0  0  0  0  0  0  0  0  0  0  0  0
   14.4596    0.2790   56.3589 C   0  0  0  0  0  0  0  0  0  0  0  0
   12.2597    0.6617   61.3272 C   0  0  0  0  0  0  0  0  0  0  0  0
   10.8080    2.4491   60.3566 C   0  0  0  0  0  0  0  0  0  0  0  0
    9.8946    0.1615   60.6943 C   0  0  0  0  0  0  0  0  0  0  0  0
    9.6969    2.6736   59.3451 C   0  0  0  0  0  0  0  0  0  0  0  0
    8.8302    0.5044   59.6657 C   0  0  0  0  0  0  0  0  0  0  0  0
   11.1309    0.9737   60.3873 N   0  0  0  0  0  0  0  0  0  0  0  0
    8.5440    1.9036   59.6882 O   0  0  0  0  0  0  0  0  0  0  0  0
   11.4421    0.7093   59.4404 H   0  0  0  0  0  0  0  0  0  0  0  0
  1  2  1  0  0  0
  1  3  2  0  0  0
  1  5  1  0  0  0
  2  4  2  0  0  0
  2 14  1  0  0  0
  3  6  1  0  0  0
  3 10  1  0  0  0
  4  9  1  0  0  0
  4 10  1  0  0  0
  5  8  1  0  0  0
  5 11  2  0  0  0
  6  7  1  0  0  0
  7  8  1  0  0  0
 16 18  1  0  0  0
 16 20  1  0  0  0
 17 19  1  0  0  0
 17 20  1  0  0  0
 18 21  1  0  0  0
 19 21  1  0  0  0
  8 15  1  0  0  0
 13 14  1  0  0  0
 15 20  1  0  0  0
 10 12  1  0  0  0
 20 22  1  0  0  0
M  CHG 1  20   1
M  END
> <minimizedAffinity>
-6.77630

> <CNNscore>
0.5666931272

> <CNNaffinity>
5.9949402809

> <CNN_VS>
3.3972914219

> <CNNaffinity_variance>
0.0544057302

$$$$



 22 24  0  0  0  0  0  0  0  0999 V2000
    9.1320   -1.5890   63.3591 C   0  0  0  0  0  0  0  0  0  0  0  0
    9.2588   -0.7434   64.4870 C   0  0  0  0  0  0  0  0  0  0  0  0
    8.7462   -2.8301   63.8198 C   0  0  0  0  0  0  0  0  0  0  0  0
    8.9403   -1.4964   65.5985 C   0  0  0  0  0  0  0  0  0  0  0  0
    9.3372   -1.3424   61.9438 C   0  0  0  0  0  0  0  0  0  0  0  0
    8.4965   -4.0392   62.9960 C   0  0  0  0  0  0  0  0  0  0  0  0
    9.2345   -3.8817   61.6558 C   0  0  0  0  0  0  0  0  0  0  0  0
    9.0215   -2.5033   60.9877 C   0  0  0  0  0  0  0  0  0  0  0  0
    8.8992   -1.1382   67.0298 C   0  0  0  0  0  0  0  0  0  0  0  0
    8.6273   -2.7661   65.1802 N   0  0  0  0  0  0  0  0  0  0  0  0
    9.6942   -0.2452   61.5221 O   0  0  0  0  0  0  0  0  0  0  0  0
    8.3489   -3.5298   65.7818 H   0  0  0  0  0  0  0  0  0  0  0  0
   11.1792    0.8687   64.4884 C   0  0  0  0  0  0  0  0  0  0  0  0
    9.6591    0.6788   64.4888 C   0  0  0  0  0  0  0  0  0  0  0  0
    7.6046   -2.3371   60.4449 C   0  0  0  0  0  0  0  0  0  0  0  0
    6.9344   -3.0321   58.1401 C   0  0  0  0  0  0  0  0  0  0  0  0
    9.1108   -1.8859   58.5026 C   0  0  0  0  0  0  0  0  0  0  0  0
    7.0252   -2.6049   56.6850 C   0  0  0  0  0  0  0  0  0  0  0  0
    9.0894   -1.5185   57.0285 C   0  0  0  0  0  0  0  0  0  0  0  0
    7.6835   -2.0232   58.9785 N   0  0  0  0  0  0  0  0  0  0  0  0
    8.3901   -2.5101   56.2749 O   0  0  0  0  0  0  0  0  0  0  0  0
    7.2261   -1.1097   58.8383 H   0  0  0  0  0  0  0  0  0  0  0  0
  1  2  1  0  0  0
  1  3  2  0  0  0
  1  5  1  0  0  0
  2  4  2  0  0  0
  2 14  1  0  0  0
  3  6  1  0  0  0
  3 10  1  0  0  0
  4  9  1  0  0  0
  4 10  1  0  0  0
  5  8  1  0  0  0
  5 11  2  0  0  0
  6  7  1  0  0  0
  7  8  1  0  0  0
 16 18  1  0  0  0
 16 20  1  0  0  0
 17 19  1  0  0  0
 17 20  1  0  0  0
 18 21  1  0  0  0
 19 21  1  0  0  0
  8 15  1  0  0  0
 13 14  1  0  0  0
 15 20  1  0  0  0
 10 12  1  0  0  0
 20 22  1  0  0  0
M  CHG 1  20   1
M  END
> <minimizedAffinity>
-7.16610

> <CNNscore>
0.5553385019

> <CNNaffinity>
5.5888733864

> <CNN_VS>
3.1037166119

> <CNNaffinity_variance>
0.0847128481

$$$$



 22 24  0  0  0  0  0  0  0  0999 V2000
   13.9629    0.1097   59.0442 C   0  0  0  0  0  0  0  0  0  0  0  0
   14.4739    0.4000   57.7566 C   0  0  0  0  0  0  0  0  0  0  0  0
   15.0050    0.2430   59.9374 C   0  0  0  0  0  0  0  0  0  0  0  0
   15.8107    0.7066   57.9086 C   0  0  0  0  0  0  0  0  0  0  0  0
   12.6349   -0.2704   59.4891 C   0  0  0  0  0  0  0  0  0  0  0  0
   14.9425    0.0307   61.4050 C   0  0  0  0  0  0  0  0  0  0  0  0
   13.7333   -0.8658   61.7209 C   0  0  0  0  0  0  0  0  0  0  0  0
   12.4337   -0.4308   61.0041 C   0  0  0  0  0  0  0  0  0  0  0  0
   16.8346    1.0863   56.9156 C   0  0  0  0  0  0  0  0  0  0  0  0
   16.1233    0.6100   59.2420 N   0  0  0  0  0  0  0  0  0  0  0  0
   11.7017   -0.4059   58.7018 O   0  0  0  0  0  0  0  0  0  0  0  0
   17.0337    0.7866   59.6452 H   0  0  0  0  0  0  0  0  0  0  0  0
   13.7644   -0.9890   55.7935 C   0  0  0  0  0  0  0  0  0  0  0  0
   13.7286    0.3794   56.4811 C   0  0  0  0  0  0  0  0  0  0  0  0
   11.8642    0.8647   61.5762 C   0  0  0  0  0  0  0  0  0  0  0  0
   11.1246    0.6617   63.9544 C   0  0  0  0  0  0  0  0  0  0  0  0
   10.1633   -0.8463   62.2272 C   0  0  0  0  0  0  0  0  0  0  0  0
    9.9073    0.3528   64.8093 C   0  0  0  0  0  0  0  0  0  0  0  0
    8.9958   -1.0778   63.1716 C   0  0  0  0  0  0  0  0  0  0  0  0
   10.7315    0.5263   62.5022 N   0  0  0  0  0  0  0  0  0  0  0  0
    9.4197   -0.9604   64.5306 O   0  0  0  0  0  0  0  0  0  0  0  0
    9.9794    1.2090   62.3243 H   0  0  0  0  0  0  0  0  0  0  0  0
  1  2  1  0  0  0
  1  3  2  0  0  0
  1  5  1  0  0  0
  2  4  2  0  0  0
  2 14  1  0  0  0
  3  6  1  0  0  0
  3 10  1  0  0  0
  4  9  1  0  0  0
  4 10  1  0  0  0
  5  8  1  0  0  0
  5 11  2  0  0  0
  6  7  1  0  0  0
  7  8  1  0  0  0
 16 18  1  0  0  0
 16 20  1  0  0  0
 17 19  1  0  0  0
 17 20  1  0  0  0
 18 21  1  0  0  0
 19 21  1  0  0  0
  8 15  1  0  0  0
 13 14  1  0  0  0
 15 20  1  0  0  0
 10 12  1  0  0  0
 20 22  1  0  0  0
M  CHG 1  20   1
M  END
> <minimizedAffinity>
-7.19188

> <CNNscore>
0.5510670543

> <CNNaffinity>
5.9365553856

> <CNN_VS>
3.2714400291

> <CNNaffinity_variance>
0.0962281823

$$$$



 22 24  0  0  0  0  0  0  0  0999 V2000
   14.1617    0.5171   57.3661 C   0  0  0  0  0  0  0  0  0  0  0  0
   15.2108    0.0180   56.5578 C   0  0  0  0  0  0  0  0  0  0  0  0
   12.9982    0.4194   56.6325 C   0  0  0  0  0  0  0  0  0  0  0  0
   14.6505   -0.3731   55.3590 C   0  0  0  0  0  0  0  0  0  0  0  0
   14.1588    1.0592   58.7123 C   0  0  0  0  0  0  0  0  0  0  0  0
   11.6407    0.8290   57.0712 C   0  0  0  0  0  0  0  0  0  0  0  0
   11.7806    1.8545   58.2090 C   0  0  0  0  0  0  0  0  0  0  0  0
   12.7906    1.4351   59.3025 C   0  0  0  0  0  0  0  0  0  0  0  0
   15.2626   -0.9630   54.1523 C   0  0  0  0  0  0  0  0  0  0  0  0
   13.3011   -0.1260   55.4161 N   0  0  0  0  0  0  0  0  0  0  0  0
   15.1904    1.1643   59.3709 O   0  0  0  0  0  0  0  0  0  0  0  0
   12.6375   -0.3207   54.6783 H   0  0  0  0  0  0  0  0  0  0  0  0
   17.4495    1.1410   56.4409 C   0  0  0  0  0  0  0  0  0  0  0  0
   16.6414   -0.0707   56.9161 C   0  0  0  0  0  0  0  0  0  0  0  0
   12.2740    0.2774   60.1527 C   0  0  0  0  0  0  0  0  0  0  0  0
   12.0612    0.2500   62.6423 C   0  0  0  0  0  0  0  0  0  0  0  0
   10.0575    0.6795   61.2343 C   0  0  0  0  0  0  0  0  0  0  0  0
   11.3174    0.9125   63.7894 C   0  0  0  0  0  0  0  0  0  0  0  0
    9.4169    1.3193   62.4545 C   0  0  0  0  0  0  0  0  0  0  0  0
   11.5557    0.8385   61.3461 N   0  0  0  0  0  0  0  0  0  0  0  0
    9.9091    0.7173   63.6526 O   0  0  0  0  0  0  0  0  0  0  0  0
   11.7539    1.8501   61.3721 H   0  0  0  0  0  0  0  0  0  0  0  0
  1  2  1  0  0  0
  1  3  2  0  0  0
  1  5  1  0  0  0
  2  4  2  0  0  0
  2 14  1  0  0  0
  3  6  1  0  0  0
  3 10  1  0  0  0
  4  9  1  0  0  0
  4 10  1  0  0  0
  5  8  1  0  0  0
  5 11  2  0  0  0
  6  7  1  0  0  0
  7  8  1  0  0  0
 16 18  1  0  0  0
 16 20  1  0  0  0
 17 19  1  0  0  0
 17 20  1  0  0  0
 18 21  1  0  0  0
 19 21  1  0  0  0
  8 15  1  0  0  0
 13 14  1  0  0  0
 15 20  1  0  0  0
 10 12  1  0  0  0
 20 22  1  0  0  0
M  CHG 1  20   1
M  END
> <minimizedAffinity>
-7.39550

> <CNNscore>
0.4757812321

> <CNNaffinity>
5.9348335266

> <CNN_VS>
2.8236823082

> <CNNaffinity_variance>
0.1366735548

$$$$



 21 24  0  0  0  0  0  0  0  0999 V2000
   20.3323   -1.5509   58.2775 C   0  0  0  0  0  0  0  0  0  0  0  0
   20.6736   -0.9928   57.0525 C   0  0  0  0  0  0  0  0  0  0  0  0
   19.0381   -1.3943   58.7781 C   0  0  0  0  0  0  0  0  0  0  0  0
   19.7164   -0.2918   56.3255 C   0  0  0  0  0  0  0  0  0  0  0  0
   16.1463   -0.3690   54.3617 C   0  0  0  0  0  0  0  0  0  0  0  0
   14.8988   -0.8596   53.9879 C   0  0  0  0  0  0  0  0  0  0  0  0
   14.0908   -0.5313   56.2482 C   0  0  0  0  0  0  0  0  0  0  0  0
   18.0540   -0.6721   58.0727 C   0  0  0  0  0  0  0  0  0  0  0  0
   15.3415   -0.0459   56.6442 C   0  0  0  0  0  0  0  0  0  0  0  0
   18.4088   -0.1503   56.8158 C   0  0  0  0  0  0  0  0  0  0  0  0
   16.3629    0.0196   55.6846 C   0  0  0  0  0  0  0  0  0  0  0  0
   13.8733   -0.9395   54.9288 C   0  0  0  0  0  0  0  0  0  0  0  0
   16.6872   -0.0803   60.1524 C   0  0  0  0  0  0  0  0  0  0  0  0
   14.5541    0.4223   59.0744 C   0  0  0  0  0  0  0  0  0  0  0  0
   16.6768   -0.5631   58.6951 C   0  0  0  0  0  0  0  0  0  0  0  0
   15.6739    0.3992   58.0413 C   0  0  0  0  0  0  0  0  0  0  0  0
   14.5723   -0.0614   61.5479 C   0  0  0  0  0  0  0  0  0  0  0  0
   15.3090    0.5164   60.3826 N   0  0  0  0  0  0  0  0  0  0  0  0
   17.5782    0.5850   55.9974 O   0  0  0  0  0  0  0  0  0  0  0  0
   12.3278   -1.5389   54.4611 Cl  0  0  0  0  0  0  0  0  0  0  0  0
   15.4463    1.5175   60.5786 H   0  0  0  0  0  0  0  0  0  0  0  0
  1  2  1  0  0  0
  1  3  2  0  0  0
  2  4  2  0  0  0
  3  8  1  0  0  0
  4 10  1  0  0  0
  5  6  2  0  0  0
  5 11  1  0  0  0
  6 12  1  0  0  0
  7  9  1  0  0  0
  7 12  2  0  0  0
  8 10  2  0  0  0
  8 15  1  0  0  0
  9 11  2  0  0  0
  9 16  1  0  0  0
 10 19  1  0  0  0
 11 19  1  0  0  0
 12 20  1  0  0  0
 13 15  1  0  0  0
 13 18  1  0  0  0
 14 16  1  0  0  0
 14 18  1  0  0  0
 15 16  1  0  0  0
 17 18  1  0  0  0
 18 21  1  0  0  0
M  CHG 1  18   1
M  END
> <minimizedAffinity>
-11.03569

> <CNNscore>
0.8944883943

> <CNNaffinity>
6.9415616989

> <CNN_VS>
6.2091464996

> <CNNaffinity_variance>
0.0579840429

$$$$



 21 24  0  0  0  0  0  0  0  0999 V2000
    2.1338   -6.5525   65.7081 C   0  0  0  0  0  0  0  0  0  0  0  0
    2.3283   -5.3608   66.3941 C   0  0  0  0  0  0  0  0  0  0  0  0
    2.5595   -6.6713   64.3834 C   0  0  0  0  0  0  0  0  0  0  0  0
    2.9601   -4.2964   65.7583 C   0  0  0  0  0  0  0  0  0  0  0  0
    6.3327   -2.8613   63.9768 C   0  0  0  0  0  0  0  0  0  0  0  0
    7.5806   -2.9144   63.3630 C   0  0  0  0  0  0  0  0  0  0  0  0
    6.6017   -4.0656   61.4693 C   0  0  0  0  0  0  0  0  0  0  0  0
    3.1841   -5.6029   63.7080 C   0  0  0  0  0  0  0  0  0  0  0  0
    5.3419   -4.0310   62.0762 C   0  0  0  0  0  0  0  0  0  0  0  0
    3.4081   -4.4193   64.4338 C   0  0  0  0  0  0  0  0  0  0  0  0
    5.2291   -3.4298   63.3388 C   0  0  0  0  0  0  0  0  0  0  0  0
    7.7144   -3.5144   62.1118 C   0  0  0  0  0  0  0  0  0  0  0  0
    2.5121   -6.4008   61.3724 C   0  0  0  0  0  0  0  0  0  0  0  0
    4.1774   -5.1860   60.0625 C   0  0  0  0  0  0  0  0  0  0  0  0
    3.6165   -5.8310   62.2738 C   0  0  0  0  0  0  0  0  0  0  0  0
    4.0939   -4.6115   61.4713 C   0  0  0  0  0  0  0  0  0  0  0  0
    3.0030   -7.1473   59.0011 C   0  0  0  0  0  0  0  0  0  0  0  0
    2.9087   -6.0046   59.9602 N   0  0  0  0  0  0  0  0  0  0  0  0
    3.9960   -3.2781   63.9312 O   0  0  0  0  0  0  0  0  0  0  0  0
    9.2585   -3.5708   61.3508 Cl  0  0  0  0  0  0  0  0  0  0  0  0
    2.1733   -5.3757   59.6091 H   0  0  0  0  0  0  0  0  0  0  0  0
  1  2  1  0  0  0
  1  3  2  0  0  0
  2  4  2  0  0  0
  3  8  1  0  0  0
  4 10  1  0  0  0
  5  6  2  0  0  0
  5 11  1  0  0  0
  6 12  1  0  0  0
  7  9  1  0  0  0
  7 12  2  0  0  0
  8 10  2  0  0  0
  8 15  1  0  0  0
  9 11  2  0  0  0
  9 16  1  0  0  0
 10 19  1  0  0  0
 11 19  1  0  0  0
 12 20  1  0  0  0
 13 15  1  0  0  0
 13 18  1  0  0  0
 14 16  1  0  0  0
 14 18  1  0  0  0
 15 16  1  0  0  0
 17 18  1  0  0  0
 18 21  1  0  0  0
M  CHG 1  18   1
M  END
> <minimizedAffinity>
-6.25624

> <CNNscore>
0.4700876772

> <CNNaffinity>
4.9320898056

> <CNN_VS>
2.3185145855

> <CNNaffinity_variance>
0.1078848094

$$$$



 21 24  0  0  0  0  0  0  0  0999 V2000
    9.3220    3.9254   61.0290 C   0  0  0  0  0  0  0  0  0  0  0  0
   10.5081    4.4987   60.5896 C   0  0  0  0  0  0  0  0  0  0  0  0
    9.1456    2.5425   60.9505 C   0  0  0  0  0  0  0  0  0  0  0  0
   11.5194    3.6863   60.0859 C   0  0  0  0  0  0  0  0  0  0  0  0
   14.1892    0.6853   60.7744 C   0  0  0  0  0  0  0  0  0  0  0  0
   14.7552   -0.4010   61.4349 C   0  0  0  0  0  0  0  0  0  0  0  0
   12.7974   -1.7336   60.9239 C   0  0  0  0  0  0  0  0  0  0  0  0
   10.1448    1.6974   60.4261 C   0  0  0  0  0  0  0  0  0  0  0  0
   12.2086   -0.6489   60.2655 C   0  0  0  0  0  0  0  0  0  0  0  0
   11.3536    2.2938   60.0249 C   0  0  0  0  0  0  0  0  0  0  0  0
   12.9194    0.5593   60.2087 C   0  0  0  0  0  0  0  0  0  0  0  0
   14.0612   -1.6078   61.5086 C   0  0  0  0  0  0  0  0  0  0  0  0
    8.5215   -0.1551   59.7356 C   0  0  0  0  0  0  0  0  0  0  0  0
   10.1021   -2.0115   59.5937 C   0  0  0  0  0  0  0  0  0  0  0  0
    9.8624    0.2092   60.3886 C   0  0  0  0  0  0  0  0  0  0  0  0
   10.8498   -0.6841   59.6230 C   0  0  0  0  0  0  0  0  0  0  0  0
    7.6423   -2.5313   59.7717 C   0  0  0  0  0  0  0  0  0  0  0  0
    8.6866   -1.5899   59.2640 N   0  0  0  0  0  0  0  0  0  0  0  0
   12.4301    1.6229   59.4850 O   0  0  0  0  0  0  0  0  0  0  0  0
   14.7680   -2.9530   62.3192 Cl  0  0  0  0  0  0  0  0  0  0  0  0
    8.6085   -1.5775   58.2377 H   0  0  0  0  0  0  0  0  0  0  0  0
  1  2  1  0  0  0
  1  3  2  0  0  0
  2  4  2  0  0  0
  3  8  1  0  0  0
  4 10  1  0  0  0
  5  6  2  0  0  0
  5 11  1  0  0  0
  6 12  1  0  0  0
  7  9  1  0  0  0
  7 12  2  0  0  0
  8 10  2  0  0  0
  8 15  1  0  0  0
  9 11  2  0  0  0
  9 16  1  0  0  0
 10 19  1  0  0  0
 11 19  1  0  0  0
 12 20  1  0  0  0
 13 15  1  0  0  0
 13 18  1  0  0  0
 14 16  1  0  0  0
 14 18  1  0  0  0
 15 16  1  0  0  0
 17 18  1  0  0  0
 18 21  1  0  0  0
M  CHG 1  18   1
M  END
> <minimizedAffinity>
1.91886

> <CNNscore>
0.4611459374

> <CNNaffinity>
5.6107158661

> <CNN_VS>
2.5873587132

> <CNNaffinity_variance>
0.7292879820

$$$$



 21 24  0  0  0  0  0  0  0  0999 V2000
    9.4877    0.1037   58.8908 C   0  0  0  0  0  0  0  0  0  0  0  0
    9.0015   -0.6879   57.8586 C   0  0  0  0  0  0  0  0  0  0  0  0
   10.8589    0.3453   58.9969 C   0  0  0  0  0  0  0  0  0  0  0  0
    9.8861   -1.2242   56.9279 C   0  0  0  0  0  0  0  0  0  0  0  0
   12.6359   -0.5394   53.9992 C   0  0  0  0  0  0  0  0  0  0  0  0
   13.5512    0.1881   53.2443 C   0  0  0  0  0  0  0  0  0  0  0  0
   14.9904    0.3914   55.1826 C   0  0  0  0  0  0  0  0  0  0  0  0
   11.7800   -0.2015   58.0803 C   0  0  0  0  0  0  0  0  0  0  0  0
   14.0767   -0.3287   55.9593 C   0  0  0  0  0  0  0  0  0  0  0  0
   11.2628   -0.9662   57.0194 C   0  0  0  0  0  0  0  0  0  0  0  0
   12.8966   -0.7799   55.3491 C   0  0  0  0  0  0  0  0  0  0  0  0
   14.7260    0.6515   53.8345 C   0  0  0  0  0  0  0  0  0  0  0  0
   13.7601   -0.1373   59.6986 C   0  0  0  0  0  0  0  0  0  0  0  0
   15.5811   -0.2408   58.0744 C   0  0  0  0  0  0  0  0  0  0  0  0
   13.2471    0.1233   58.2752 C   0  0  0  0  0  0  0  0  0  0  0  0
   14.2660   -0.6417   57.4175 C   0  0  0  0  0  0  0  0  0  0  0  0
   16.0890    0.5657   60.4077 C   0  0  0  0  0  0  0  0  0  0  0  0
   15.2592   -0.3346   59.5501 N   0  0  0  0  0  0  0  0  0  0  0  0
   12.0157   -1.5797   56.0410 O   0  0  0  0  0  0  0  0  0  0  0  0
   15.8609    1.5440   52.8954 Cl  0  0  0  0  0  0  0  0  0  0  0  0
   15.4633   -1.3007   59.8409 H   0  0  0  0  0  0  0  0  0  0  0  0
  1  2  1  0  0  0
  1  3  2  0  0  0
  2  4  2  0  0  0
  3  8  1  0  0  0
  4 10  1  0  0  0
  5  6  2  0  0  0
  5 11  1  0  0  0
  6 12  1  0  0  0
  7  9  1  0  0  0
  7 12  2  0  0  0
  8 10  2  0  0  0
  8 15  1  0  0  0
  9 11  2  0  0  0
  9 16  1  0  0  0
 10 19  1  0  0  0
 11 19  1  0  0  0
 12 20  1  0  0  0
 13 15  1  0  0  0
 13 18  1  0  0  0
 14 16  1  0  0  0
 14 18  1  0  0  0
 15 16  1  0  0  0
 17 18  1  0  0  0
 18 21  1  0  0  0
M  CHG 1  18   1
M  END
> <minimizedAffinity>
-8.35659

> <CNNscore>
0.4540648460

> <CNNaffinity>
5.9634809494

> <CNN_VS>
2.7078070641

> <CNNaffinity_variance>
0.0905878097

$$$$



 21 24  0  0  0  0  0  0  0  0999 V2000
    8.4447   -3.9399   61.2110 C   0  0  0  0  0  0  0  0  0  0  0  0
    9.4832   -3.3460   61.9161 C   0  0  0  0  0  0  0  0  0  0  0  0
    7.1296   -3.8019   61.6596 C   0  0  0  0  0  0  0  0  0  0  0  0
    9.2025   -2.6044   63.0596 C   0  0  0  0  0  0  0  0  0  0  0  0
    7.3432    0.6333   64.6931 C   0  0  0  0  0  0  0  0  0  0  0  0
    6.4523    1.7001   64.7638 C   0  0  0  0  0  0  0  0  0  0  0  0
    4.5914    0.1488   64.7534 C   0  0  0  0  0  0  0  0  0  0  0  0
    6.8179   -3.0734   62.8257 C   0  0  0  0  0  0  0  0  0  0  0  0
    5.4718   -0.9351   64.6712 C   0  0  0  0  0  0  0  0  0  0  0  0
    7.8797   -2.4460   63.5016 C   0  0  0  0  0  0  0  0  0  0  0  0
    6.8492   -0.6708   64.6333 C   0  0  0  0  0  0  0  0  0  0  0  0
    5.0798    1.4582   64.7948 C   0  0  0  0  0  0  0  0  0  0  0  0
    4.6370   -4.3277   63.2883 C   0  0  0  0  0  0  0  0  0  0  0  0
    3.5550   -2.6862   64.7372 C   0  0  0  0  0  0  0  0  0  0  0  0
    5.3603   -2.9749   63.2279 C   0  0  0  0  0  0  0  0  0  0  0  0
    5.0404   -2.3738   64.6047 C   0  0  0  0  0  0  0  0  0  0  0  0
    2.1341   -4.4666   63.6586 C   0  0  0  0  0  0  0  0  0  0  0  0
    3.4672   -4.1104   64.2332 N   0  0  0  0  0  0  0  0  0  0  0  0
    7.7583   -1.7039   64.6570 O   0  0  0  0  0  0  0  0  0  0  0  0
    3.9800    2.7802   64.8911 Cl  0  0  0  0  0  0  0  0  0  0  0  0
    3.6205   -4.7256   65.0441 H   0  0  0  0  0  0  0  0  0  0  0  0
  1  2  1  0  0  0
  1  3  2  0  0  0
  2  4  2  0  0  0
  3  8  1  0  0  0
  4 10  1  0  0  0
  5  6  2  0  0  0
  5 11  1  0  0  0
  6 12  1  0  0  0
  7  9  1  0  0  0
  7 12  2  0  0  0
  8 10  2  0  0  0
  8 15  1  0  0  0
  9 11  2  0  0  0
  9 16  1  0  0  0
 10 19  1  0  0  0
 11 19  1  0  0  0
 12 20  1  0  0  0
 13 15  1  0  0  0
 13 18  1  0  0  0
 14 16  1  0  0  0
 14 18  1  0  0  0
 15 16  1  0  0  0
 17 18  1  0  0  0
 18 21  1  0  0  0
M  CHG 1  18   1
M  END
> <minimizedAffinity>
-6.18509

> <CNNscore>
0.4299568832

> <CNNaffinity>
5.3865427971

> <CNN_VS>
2.3159811497

> <CNNaffinity_variance>
0.0579170585

$$$$



 21 24  0  0  0  0  0  0  0  0999 V2000
   12.3688    0.7683   61.6653 C   0  0  0  0  0  0  0  0  0  0  0  0
   11.1760    0.4025   61.0555 C   0  0  0  0  0  0  0  0  0  0  0  0
   13.5782    0.5976   60.9885 C   0  0  0  0  0  0  0  0  0  0  0  0
   11.1947   -0.1199   59.7659 C   0  0  0  0  0  0  0  0  0  0  0  0
   12.0706    0.4602   55.8284 C   0  0  0  0  0  0  0  0  0  0  0  0
   12.6532    1.0683   54.7204 C   0  0  0  0  0  0  0  0  0  0  0  0
   14.8472    0.4145   55.5133 C   0  0  0  0  0  0  0  0  0  0  0  0
   13.6289    0.0521   59.6894 C   0  0  0  0  0  0  0  0  0  0  0  0
   14.2796   -0.1922   56.6387 C   0  0  0  0  0  0  0  0  0  0  0  0
   12.4066   -0.2735   59.0747 C   0  0  0  0  0  0  0  0  0  0  0  0
   12.8847   -0.1510   56.7833 C   0  0  0  0  0  0  0  0  0  0  0  0
   14.0381    1.0445   54.5629 C   0  0  0  0  0  0  0  0  0  0  0  0
   16.0299   -0.8032   59.9072 C   0  0  0  0  0  0  0  0  0  0  0  0
   16.5747   -1.0128   57.5357 C   0  0  0  0  0  0  0  0  0  0  0  0
   14.9884   -0.0877   59.0352 C   0  0  0  0  0  0  0  0  0  0  0  0
   15.0682   -0.8771   57.7201 C   0  0  0  0  0  0  0  0  0  0  0  0
   18.4608   -0.9437   59.2060 C   0  0  0  0  0  0  0  0  0  0  0  0
   17.0517   -1.3588   58.9296 N   0  0  0  0  0  0  0  0  0  0  0  0
   12.2707   -0.8212   57.8169 O   0  0  0  0  0  0  0  0  0  0  0  0
   14.7555    1.7903   53.1861 Cl  0  0  0  0  0  0  0  0  0  0  0  0
   17.0173   -2.3842   59.0126 H   0  0  0  0  0  0  0  0  0  0  0  0
  1  2  1  0  0  0
  1  3  2  0  0  0
  2  4  2  0  0  0
  3  8  1  0  0  0
  4 10  1  0  0  0
  5  6  2  0  0  0
  5 11  1  0  0  0
  6 12  1  0  0  0
  7  9  1  0  0  0
  7 12  2  0  0  0
  8 10  2  0  0  0
  8 15  1  0  0  0
  9 11  2  0  0  0
  9 16  1  0  0  0
 10 19  1  0  0  0
 11 19  1  0  0  0
 12 20  1  0  0  0
 13 15  1  0  0  0
 13 18  1  0  0  0
 14 16  1  0  0  0
 14 18  1  0  0  0
 15 16  1  0  0  0
 17 18  1  0  0  0
 18 21  1  0  0  0
M  CHG 1  18   1
M  END
> <minimizedAffinity>
-4.77882

> <CNNscore>
0.4026251435

> <CNNaffinity>
5.9874043465

> <CNN_VS>
2.4106795788

> <CNNaffinity_variance>
0.9027799368

$$$$



 21 24  0  0  0  0  0  0  0  0999 V2000
   12.8695    0.0011   55.8139 C   0  0  0  0  0  0  0  0  0  0  0  0
   12.0324   -0.9095   55.1825 C   0  0  0  0  0  0  0  0  0  0  0  0
   12.4930    0.5624   57.0359 C   0  0  0  0  0  0  0  0  0  0  0  0
   10.8282   -1.2667   55.7814 C   0  0  0  0  0  0  0  0  0  0  0  0
    8.9387   -2.9870   58.9559 C   0  0  0  0  0  0  0  0  0  0  0  0
    8.7972   -3.4867   60.2471 C   0  0  0  0  0  0  0  0  0  0  0  0
    9.1146   -1.2592   61.1455 C   0  0  0  0  0  0  0  0  0  0  0  0
   11.2700    0.2343   57.6557 C   0  0  0  0  0  0  0  0  0  0  0  0
    9.2702   -0.7413   59.8554 C   0  0  0  0  0  0  0  0  0  0  0  0
   10.4564   -0.7205   57.0197 C   0  0  0  0  0  0  0  0  0  0  0  0
    9.1872   -1.6262   58.7699 C   0  0  0  0  0  0  0  0  0  0  0  0
    8.8840   -2.6246   61.3391 C   0  0  0  0  0  0  0  0  0  0  0  0
   11.1036    2.4186   58.9765 C   0  0  0  0  0  0  0  0  0  0  0  0
    9.5397    1.6970   60.7080 C   0  0  0  0  0  0  0  0  0  0  0  0
   10.9534    0.8907   58.9841 C   0  0  0  0  0  0  0  0  0  0  0  0
    9.5377    0.7063   59.5503 C   0  0  0  0  0  0  0  0  0  0  0  0
   10.9147    3.7705   61.1113 C   0  0  0  0  0  0  0  0  0  0  0  0
   10.2166    2.9102   60.1078 N   0  0  0  0  0  0  0  0  0  0  0  0
    9.2300   -1.1516   57.4786 O   0  0  0  0  0  0  0  0  0  0  0  0
    8.6997   -3.2445   62.9354 Cl  0  0  0  0  0  0  0  0  0  0  0  0
    9.4777    3.4848   59.6795 H   0  0  0  0  0  0  0  0  0  0  0  0
  1  2  1  0  0  0
  1  3  2  0  0  0
  2  4  2  0  0  0
  3  8  1  0  0  0
  4 10  1  0  0  0
  5  6  2  0  0  0
  5 11  1  0  0  0
  6 12  1  0  0  0
  7  9  1  0  0  0
  7 12  2  0  0  0
  8 10  2  0  0  0
  8 15  1  0  0  0
  9 11  2  0  0  0
  9 16  1  0  0  0
 10 19  1  0  0  0
 11 19  1  0  0  0
 12 20  1  0  0  0
 13 15  1  0  0  0
 13 18  1  0  0  0
 14 16  1  0  0  0
 14 18  1  0  0  0
 15 16  1  0  0  0
 17 18  1  0  0  0
 18 21  1  0  0  0
M  CHG 1  18   1
M  END
> <minimizedAffinity>
-8.08510

> <CNNscore>
0.3756614029

> <CNNaffinity>
5.5842080116

> <CNN_VS>
2.0977714062

> <CNNaffinity_variance>
0.1175870299

$$$$



 21 24  0  0  0  0  0  0  0  0999 V2000
    3.1507   -2.5662   64.4159 C   0  0  0  0  0  0  0  0  0  0  0  0
    2.9054   -3.6046   63.5271 C   0  0  0  0  0  0  0  0  0  0  0  0
    4.4550   -2.1046   64.6050 C   0  0  0  0  0  0  0  0  0  0  0  0
    3.9626   -4.1690   62.8200 C   0  0  0  0  0  0  0  0  0  0  0  0
    6.9526   -3.6492   60.1001 C   0  0  0  0  0  0  0  0  0  0  0  0
    7.8558   -2.9497   59.3053 C   0  0  0  0  0  0  0  0  0  0  0  0
    8.9985   -2.1648   61.2923 C   0  0  0  0  0  0  0  0  0  0  0  0
    5.5477   -2.6710   63.9174 C   0  0  0  0  0  0  0  0  0  0  0  0
    8.0931   -2.8529   62.1069 C   0  0  0  0  0  0  0  0  0  0  0  0
    5.2720   -3.6935   62.9920 C   0  0  0  0  0  0  0  0  0  0  0  0
    7.0679   -3.5852   61.4896 C   0  0  0  0  0  0  0  0  0  0  0  0
    8.8768   -2.2101   59.9002 C   0  0  0  0  0  0  0  0  0  0  0  0
    7.2809   -2.0006   65.6753 C   0  0  0  0  0  0  0  0  0  0  0  0
    9.2921   -2.1363   64.2963 C   0  0  0  0  0  0  0  0  0  0  0  0
    6.9243   -2.0972   64.1851 C   0  0  0  0  0  0  0  0  0  0  0  0
    8.1336   -2.8492   63.6098 C   0  0  0  0  0  0  0  0  0  0  0  0
    9.3912   -0.8316   66.4505 C   0  0  0  0  0  0  0  0  0  0  0  0
    8.7996   -1.9940   65.7202 N   0  0  0  0  0  0  0  0  0  0  0  0
    6.2157   -4.3617   62.2415 O   0  0  0  0  0  0  0  0  0  0  0  0
    9.9984   -1.3525   58.9137 Cl  0  0  0  0  0  0  0  0  0  0  0  0
    9.0869   -2.8446   66.2235 H   0  0  0  0  0  0  0  0  0  0  0  0
  1  2  1  0  0  0
  1  3  2  0  0  0
  2  4  2  0  0  0
  3  8  1  0  0  0
  4 10  1  0  0  0
  5  6  2  0  0  0
  5 11  1  0  0  0
  6 12  1  0  0  0
  7  9  1  0  0  0
  7 12  2  0  0  0
  8 10  2  0  0  0
  8 15  1  0  0  0
  9 11  2  0  0  0
  9 16  1  0  0  0
 10 19  1  0  0  0
 11 19  1  0  0  0
 12 20  1  0  0  0
 13 15  1  0  0  0
 13 18  1  0  0  0
 14 16  1  0  0  0
 14 18  1  0  0  0
 15 16  1  0  0  0
 17 18  1  0  0  0
 18 21  1  0  0  0
M  CHG 1  18   1
M  END
> <minimizedAffinity>
-7.68644

> <CNNscore>
0.3466410637

> <CNNaffinity>
5.2875485420

> <CNN_VS>
1.8328814507

> <CNNaffinity_variance>
0.1233089119

$$$$



 21 24  0  0  0  0  0  0  0  0999 V2000
    8.1361    1.2254   65.9368 C   0  0  0  0  0  0  0  0  0  0  0  0
    7.7778    0.0610   66.6033 C   0  0  0  0  0  0  0  0  0  0  0  0
    8.6746    1.1543   64.6504 C   0  0  0  0  0  0  0  0  0  0  0  0
    7.9460   -1.1698   65.9764 C   0  0  0  0  0  0  0  0  0  0  0  0
    6.9485   -3.6197   62.8763 C   0  0  0  0  0  0  0  0  0  0  0  0
    6.4346   -3.9671   61.6305 C   0  0  0  0  0  0  0  0  0  0  0  0
    8.1657   -2.6606   60.5506 C   0  0  0  0  0  0  0  0  0  0  0  0
    8.8750   -0.0799   63.9991 C   0  0  0  0  0  0  0  0  0  0  0  0
    8.6891   -2.2924   61.7944 C   0  0  0  0  0  0  0  0  0  0  0  0
    8.4675   -1.2437   64.6754 C   0  0  0  0  0  0  0  0  0  0  0  0
    8.0587   -2.7771   62.9503 C   0  0  0  0  0  0  0  0  0  0  0  0
    7.0425   -3.4894   60.4705 C   0  0  0  0  0  0  0  0  0  0  0  0
   10.7432    0.7790   62.4774 C   0  0  0  0  0  0  0  0  0  0  0  0
   10.6332   -0.9323   60.7383 C   0  0  0  0  0  0  0  0  0  0  0  0
    9.4594   -0.0537   62.6013 C   0  0  0  0  0  0  0  0  0  0  0  0
    9.8801   -1.3938   61.9799 C   0  0  0  0  0  0  0  0  0  0  0  0
   11.7996    1.2413   60.2210 C   0  0  0  0  0  0  0  0  0  0  0  0
   11.4619    0.2214   61.2603 N   0  0  0  0  0  0  0  0  0  0  0  0
    8.5952   -2.5289   64.1933 O   0  0  0  0  0  0  0  0  0  0  0  0
    6.4095   -3.9282   58.9300 Cl  0  0  0  0  0  0  0  0  0  0  0  0
   12.3511   -0.1749   61.5945 H   0  0  0  0  0  0  0  0  0  0  0  0
  1  2  1  0  0  0
  1  3  2  0  0  0
  2  4  2  0  0  0
  3  8  1  0  0  0
  4 10  1  0  0  0
  5  6  2  0  0  0
  5 11  1  0  0  0
  6 12  1  0  0  0
  7  9  1  0  0  0
  7 12  2  0  0  0
  8 10  2  0  0  0
  8 15  1  0  0  0
  9 11  2  0  0  0
  9 16  1  0  0  0
 10 19  1  0  0  0
 11 19  1  0  0  0
 12 20  1  0  0  0
 13 15  1  0  0  0
 13 18  1  0  0  0
 14 16  1  0  0  0
 14 18  1  0  0  0
 15 16  1  0  0  0
 17 18  1  0  0  0
 18 21  1  0  0  0
M  CHG 1  18   1
M  END
> <minimizedAffinity>
-8.55143

> <CNNscore>
0.3341764510

> <CNNaffinity>
5.3433928490

> <CNN_VS>
1.7856360674

> <CNNaffinity_variance>
0.2031061202

$$$$



 26 29  0  0  0  0  0  0  0  0999 V2000
   11.3740    1.5806   64.0149 C   0  0  0  0  0  0  0  0  0  0  0  0
   10.5896    0.9804   64.9806 C   0  0  0  0  0  0  0  0  0  0  0  0
   11.4863    0.9887   62.7562 C   0  0  0  0  0  0  0  0  0  0  0  0
    9.9013   -0.1855   64.6627 C   0  0  0  0  0  0  0  0  0  0  0  0
    7.3739   -3.0967   62.1001 C   0  0  0  0  0  0  0  0  0  0  0  0
    6.6936   -3.6142   61.0007 C   0  0  0  0  0  0  0  0  0  0  0  0
    8.4056   -2.7162   59.5860 C   0  0  0  0  0  0  0  0  0  0  0  0
   10.8292   -0.2211   62.4186 C   0  0  0  0  0  0  0  0  0  0  0  0
    9.9919   -0.7889   63.3835 C   0  0  0  0  0  0  0  0  0  0  0  0
    8.5840   -2.3713   61.9679 C   0  0  0  0  0  0  0  0  0  0  0  0
    9.1062   -2.1713   60.6878 C   0  0  0  0  0  0  0  0  0  0  0  0
    7.2125   -3.4208   59.7340 C   0  0  0  0  0  0  0  0  0  0  0  0
   11.1116   -0.8249   61.0953 C   0  0  0  0  0  0  0  0  0  0  0  0
    9.1384   -1.8737   63.1522 N   0  0  0  0  0  0  0  0  0  0  0  0
   10.3039   -1.5961   60.3761 N   0  0  0  0  0  0  0  0  0  0  0  0
    6.4000   -4.0525   58.3567 Cl  0  0  0  0  0  0  0  0  0  0  0  0
    8.7229   -2.2578   63.9959 H   0  0  0  0  0  0  0  0  0  0  0  0
   10.6451   -1.7925   59.4367 H   0  0  0  0  0  0  0  0  0  0  0  0
   12.4382    0.1304   59.2627 C   0  0  0  0  0  0  0  0  0  0  0  0
   13.5584   -1.0259   61.1500 C   0  0  0  0  0  0  0  0  0  0  0  0
   13.4497    1.2643   59.3399 C   0  0  0  0  0  0  0  0  0  0  0  0
   14.5822    0.0959   61.2466 C   0  0  0  0  0  0  0  0  0  0  0  0
   15.5799   -0.0328   58.9272 C   0  0  0  0  0  0  0  0  0  0  0  0
   12.3204   -0.5569   60.5418 N   0  0  0  0  0  0  0  0  0  0  0  0
   14.7633    0.7685   59.9035 N   0  0  0  0  0  0  0  0  0  0  0  0
   15.3375    1.6400   60.0964 H   0  0  0  0  0  0  0  0  0  0  0  0
  1  2  1  0  0  0
  1  3  2  0  0  0
  2  4  2  0  0  0
  3  8  1  0  0  0
  4  9  1  0  0  0
  5  6  2  0  0  0
  5 10  1  0  0  0
  6 12  1  0  0  0
  7 11  1  0  0  0
  7 12  2  0  0  0
  8  9  2  0  0  0
  8 13  1  0  0  0
  9 14  1  0  0  0
 10 11  2  0  0  0
 10 14  1  0  0  0
 11 15  1  0  0  0
 12 16  1  0  0  0
 13 24  1  0  0  0
 13 15  2  0  0  0
 19 21  1  0  0  0
 19 24  1  0  0  0
 20 22  1  0  0  0
 20 24  1  0  0  0
 21 25  1  0  0  0
 22 25  1  0  0  0
 23 25  1  0  0  0
 14 17  1  0  0  0
 15 18  1  0  0  0
 25 26  1  0  0  0
M  CHG 1  15   1
M  CHG 1  25   1
M  END
> <minimizedAffinity>
-8.14452

> <CNNscore>
0.4436393976

> <CNNaffinity>
6.2430367470

> <CNN_VS>
2.7696571350

> <CNNaffinity_variance>
0.0787548721

$$$$



 26 29  0  0  0  0  0  0  0  0999 V2000
   10.0579    0.0159   65.3605 C   0  0  0  0  0  0  0  0  0  0  0  0
    9.7932   -0.9907   66.2687 C   0  0  0  0  0  0  0  0  0  0  0  0
    9.7795   -0.1885   64.0086 C   0  0  0  0  0  0  0  0  0  0  0  0
    9.2219   -2.1752   65.8162 C   0  0  0  0  0  0  0  0  0  0  0  0
    6.3936   -4.8945   63.3593 C   0  0  0  0  0  0  0  0  0  0  0  0
    5.4385   -5.2747   62.4198 C   0  0  0  0  0  0  0  0  0  0  0  0
    6.3384   -3.6370   60.9210 C   0  0  0  0  0  0  0  0  0  0  0  0
    9.2361   -1.4008   63.5143 C   0  0  0  0  0  0  0  0  0  0  0  0
    8.9178   -2.3907   64.4488 C   0  0  0  0  0  0  0  0  0  0  0  0
    7.3407   -3.8719   63.1037 C   0  0  0  0  0  0  0  0  0  0  0  0
    7.3089   -3.2266   61.8652 C   0  0  0  0  0  0  0  0  0  0  0  0
    5.4096   -4.6398   61.1922 C   0  0  0  0  0  0  0  0  0  0  0  0
    9.0910   -1.5560   62.0480 C   0  0  0  0  0  0  0  0  0  0  0  0
    8.2154   -3.5643   64.1514 N   0  0  0  0  0  0  0  0  0  0  0  0
    8.2003   -2.3019   61.4040 N   0  0  0  0  0  0  0  0  0  0  0  0
    4.2470   -5.0904   60.0084 Cl  0  0  0  0  0  0  0  0  0  0  0  0
    8.2096   -4.2432   64.9071 H   0  0  0  0  0  0  0  0  0  0  0  0
    8.1906   -2.1591   60.3955 H   0  0  0  0  0  0  0  0  0  0  0  0
    9.4879    0.2344   60.4147 C   0  0  0  0  0  0  0  0  0  0  0  0
   11.3574   -1.2120   61.1674 C   0  0  0  0  0  0  0  0  0  0  0  0
   10.3592    1.4704   60.5831 C   0  0  0  0  0  0  0  0  0  0  0  0
   12.2485    0.0090   61.3432 C   0  0  0  0  0  0  0  0  0  0  0  0
   12.2267    0.9003   58.9775 C   0  0  0  0  0  0  0  0  0  0  0  0
    9.9488   -0.8536   61.2668 N   0  0  0  0  0  0  0  0  0  0  0  0
   11.8205    1.1194   60.4090 N   0  0  0  0  0  0  0  0  0  0  0  0
   12.3590    1.9787   60.7221 H   0  0  0  0  0  0  0  0  0  0  0  0
  1  2  1  0  0  0
  1  3  2  0  0  0
  2  4  2  0  0  0
  3  8  1  0  0  0
  4  9  1  0  0  0
  5  6  2  0  0  0
  5 10  1  0  0  0
  6 12  1  0  0  0
  7 11  1  0  0  0
  7 12  2  0  0  0
  8  9  2  0  0  0
  8 13  1  0  0  0
  9 14  1  0  0  0
 10 11  2  0  0  0
 10 14  1  0  0  0
 11 15  1  0  0  0
 12 16  1  0  0  0
 13 24  1  0  0  0
 13 15  2  0  0  0
 19 21  1  0  0  0
 19 24  1  0  0  0
 20 22  1  0  0  0
 20 24  1  0  0  0
 21 25  1  0  0  0
 22 25  1  0  0  0
 23 25  1  0  0  0
 14 17  1  0  0  0
 15 18  1  0  0  0
 25 26  1  0  0  0
M  CHG 1  15   1
M  CHG 1  25   1
M  END
> <minimizedAffinity>
-7.82882

> <CNNscore>
0.4347406626

> <CNNaffinity>
6.1133146286

> <CNN_VS>
2.6577064991

> <CNNaffinity_variance>
0.0967619419

$$$$



 26 29  0  0  0  0  0  0  0  0999 V2000
    5.1437   -5.6402   61.9373 C   0  0  0  0  0  0  0  0  0  0  0  0
    4.5712   -5.2783   63.1412 C   0  0  0  0  0  0  0  0  0  0  0  0
    6.1273   -4.8271   61.3729 C   0  0  0  0  0  0  0  0  0  0  0  0
    5.0151   -4.1259   63.7806 C   0  0  0  0  0  0  0  0  0  0  0  0
    8.0505   -0.9896   65.3236 C   0  0  0  0  0  0  0  0  0  0  0  0
    9.2627   -0.3337   65.5221 C   0  0  0  0  0  0  0  0  0  0  0  0
    9.8483   -0.8426   63.2558 C   0  0  0  0  0  0  0  0  0  0  0  0
    6.5689   -3.6258   61.9821 C   0  0  0  0  0  0  0  0  0  0  0  0
    6.0252   -3.2993   63.2281 C   0  0  0  0  0  0  0  0  0  0  0  0
    7.7106   -1.5929   64.0872 C   0  0  0  0  0  0  0  0  0  0  0  0
    8.6282   -1.5245   63.0362 C   0  0  0  0  0  0  0  0  0  0  0  0
   10.1692   -0.2613   64.4809 C   0  0  0  0  0  0  0  0  0  0  0  0
    7.5308   -2.7776   61.2402 C   0  0  0  0  0  0  0  0  0  0  0  0
    6.4781   -2.2534   64.0404 N   0  0  0  0  0  0  0  0  0  0  0  0
    8.4331   -1.9493   61.7540 N   0  0  0  0  0  0  0  0  0  0  0  0
   11.6719    0.5470   64.6920 Cl  0  0  0  0  0  0  0  0  0  0  0  0
    5.8734   -2.0559   64.8325 H   0  0  0  0  0  0  0  0  0  0  0  0
    9.0818   -1.5651   61.0691 H   0  0  0  0  0  0  0  0  0  0  0  0
    6.2555   -2.7754   59.1415 C   0  0  0  0  0  0  0  0  0  0  0  0
    8.7115   -3.1227   59.1148 C   0  0  0  0  0  0  0  0  0  0  0  0
    6.3688   -1.7926   57.9855 C   0  0  0  0  0  0  0  0  0  0  0  0
    8.8505   -2.1438   57.9580 C   0  0  0  0  0  0  0  0  0  0  0  0
    7.4016   -3.3014   56.2399 C   0  0  0  0  0  0  0  0  0  0  0  0
    7.5047   -2.8569   59.8865 N   0  0  0  0  0  0  0  0  0  0  0  0
    7.5807   -2.1070   57.1363 N   0  0  0  0  0  0  0  0  0  0  0  0
    7.6903   -1.2807   56.4793 H   0  0  0  0  0  0  0  0  0  0  0  0
  1  2  1  0  0  0
  1  3  2  0  0  0
  2  4  2  0  0  0
  3  8  1  0  0  0
  4  9  1  0  0  0
  5  6  2  0  0  0
  5 10  1  0  0  0
  6 12  1  0  0  0
  7 11  1  0  0  0
  7 12  2  0  0  0
  8  9  2  0  0  0
  8 13  1  0  0  0
  9 14  1  0  0  0
 10 11  2  0  0  0
 10 14  1  0  0  0
 11 15  1  0  0  0
 12 16  1  0  0  0
 13 24  1  0  0  0
 13 15  2  0  0  0
 19 21  1  0  0  0
 19 24  1  0  0  0
 20 22  1  0  0  0
 20 24  1  0  0  0
 21 25  1  0  0  0
 22 25  1  0  0  0
 23 25  1  0  0  0
 14 17  1  0  0  0
 15 18  1  0  0  0
 25 26  1  0  0  0
M  CHG 1  15   1
M  CHG 1  25   1
M  END
> <minimizedAffinity>
-5.88968

> <CNNscore>
0.3400250971

> <CNNaffinity>
5.6372971535

> <CNN_VS>
1.9168225527

> <CNNaffinity_variance>
0.0432017520

$$$$



 26 29  0  0  0  0  0  0  0  0999 V2000
    9.5637   -2.2736   66.5556 C   0  0  0  0  0  0  0  0  0  0  0  0
   10.2564   -1.0806   66.4833 C   0  0  0  0  0  0  0  0  0  0  0  0
    8.8791   -2.7391   65.4324 C   0  0  0  0  0  0  0  0  0  0  0  0
   10.2825   -0.3871   65.2782 C   0  0  0  0  0  0  0  0  0  0  0  0
   10.5708    0.2199   60.6979 C   0  0  0  0  0  0  0  0  0  0  0  0
   10.6482   -0.0896   59.3424 C   0  0  0  0  0  0  0  0  0  0  0  0
    9.1528   -1.9205   59.7296 C   0  0  0  0  0  0  0  0  0  0  0  0
    8.8545   -2.0319   64.2041 C   0  0  0  0  0  0  0  0  0  0  0  0
    9.6063   -0.8559   64.1243 C   0  0  0  0  0  0  0  0  0  0  0  0
    9.7865   -0.5375   61.6030 C   0  0  0  0  0  0  0  0  0  0  0  0
    9.0698   -1.6314   61.1121 C   0  0  0  0  0  0  0  0  0  0  0  0
    9.9353   -1.1690   58.8550 C   0  0  0  0  0  0  0  0  0  0  0  0
    7.9998   -2.5550   63.1127 C   0  0  0  0  0  0  0  0  0  0  0  0
    9.8331   -0.1394   62.9435 N   0  0  0  0  0  0  0  0  0  0  0  0
    8.1851   -2.4049   61.8060 N   0  0  0  0  0  0  0  0  0  0  0  0
   10.0047   -1.5734   57.1853 Cl  0  0  0  0  0  0  0  0  0  0  0  0
   10.2623    0.7696   63.0897 H   0  0  0  0  0  0  0  0  0  0  0  0
    7.5529   -2.9587   61.2306 H   0  0  0  0  0  0  0  0  0  0  0  0
    5.8216   -2.6871   64.2390 C   0  0  0  0  0  0  0  0  0  0  0  0
    6.8219   -4.7077   63.2047 C   0  0  0  0  0  0  0  0  0  0  0  0
    4.4729   -3.0215   63.6191 C   0  0  0  0  0  0  0  0  0  0  0  0
    5.4834   -5.0636   62.5743 C   0  0  0  0  0  0  0  0  0  0  0  0
    4.0732   -5.2900   64.6603 C   0  0  0  0  0  0  0  0  0  0  0  0
    6.9122   -3.2792   63.4759 N   0  0  0  0  0  0  0  0  0  0  0  0
    4.3423   -4.5128   63.4010 N   0  0  0  0  0  0  0  0  0  0  0  0
    3.4726   -4.6386   62.8060 H   0  0  0  0  0  0  0  0  0  0  0  0
  1  2  1  0  0  0
  1  3  2  0  0  0
  2  4  2  0  0  0
  3  8  1  0  0  0
  4  9  1  0  0  0
  5  6  2  0  0  0
  5 10  1  0  0  0
  6 12  1  0  0  0
  7 11  1  0  0  0
  7 12  2  0  0  0
  8  9  2  0  0  0
  8 13  1  0  0  0
  9 14  1  0  0  0
 10 11  2  0  0  0
 10 14  1  0  0  0
 11 15  1  0  0  0
 12 16  1  0  0  0
 13 24  1  0  0  0
 13 15  2  0  0  0
 19 21  1  0  0  0
 19 24  1  0  0  0
 20 22  1  0  0  0
 20 24  1  0  0  0
 21 25  1  0  0  0
 22 25  1  0  0  0
 23 25  1  0  0  0
 14 17  1  0  0  0
 15 18  1  0  0  0
 25 26  1  0  0  0
M  CHG 1  15   1
M  CHG 1  25   1
M  END
> <minimizedAffinity>
-7.10267

> <CNNscore>
0.3275556266

> <CNNaffinity>
5.8949904442

> <CNN_VS>
1.9309372902

> <CNNaffinity_variance>
0.0835675523

$$$$



 26 29  0  0  0  0  0  0  0  0999 V2000
    8.7692   -3.2210   64.2881 C   0  0  0  0  0  0  0  0  0  0  0  0
    9.5830   -2.1711   63.9091 C   0  0  0  0  0  0  0  0  0  0  0  0
    7.7787   -3.6719   63.4146 C   0  0  0  0  0  0  0  0  0  0  0  0
    9.4168   -1.6093   62.6479 C   0  0  0  0  0  0  0  0  0  0  0  0
    8.6858   -1.4968   58.0780 C   0  0  0  0  0  0  0  0  0  0  0  0
    8.3940   -1.9423   56.7913 C   0  0  0  0  0  0  0  0  0  0  0  0
    6.7953   -3.4560   57.7354 C   0  0  0  0  0  0  0  0  0  0  0  0
    7.5602   -3.0904   62.1404 C   0  0  0  0  0  0  0  0  0  0  0  0
    8.4267   -2.0677   61.7433 C   0  0  0  0  0  0  0  0  0  0  0  0
    8.0428   -2.0247   59.2251 C   0  0  0  0  0  0  0  0  0  0  0  0
    7.0852   -3.0269   59.0521 C   0  0  0  0  0  0  0  0  0  0  0  0
    7.4430   -2.9307   56.6190 C   0  0  0  0  0  0  0  0  0  0  0  0
    6.4059   -3.5666   61.3429 C   0  0  0  0  0  0  0  0  0  0  0  0
    8.4624   -1.5141   60.4583 N   0  0  0  0  0  0  0  0  0  0  0  0
    6.2932   -3.5742   60.0194 N   0  0  0  0  0  0  0  0  0  0  0  0
    7.0555   -3.4980   55.0428 Cl  0  0  0  0  0  0  0  0  0  0  0  0
    9.0358   -0.6787   60.3858 H   0  0  0  0  0  0  0  0  0  0  0  0
    5.4715   -4.0682   59.6754 H   0  0  0  0  0  0  0  0  0  0  0  0
    4.4142   -5.0012   61.4180 C   0  0  0  0  0  0  0  0  0  0  0  0
    5.0329   -3.6128   63.3784 C   0  0  0  0  0  0  0  0  0  0  0  0
    4.1619   -6.1951   62.3268 C   0  0  0  0  0  0  0  0  0  0  0  0
    4.7866   -4.7922   64.3079 C   0  0  0  0  0  0  0  0  0  0  0  0
    2.3490   -5.2343   63.8035 C   0  0  0  0  0  0  0  0  0  0  0  0
    5.3467   -4.0634   62.0289 N   0  0  0  0  0  0  0  0  0  0  0  0
    3.7643   -5.7351   63.7122 N   0  0  0  0  0  0  0  0  0  0  0  0
    3.7908   -6.6049   64.3196 H   0  0  0  0  0  0  0  0  0  0  0  0
  1  2  1  0  0  0
  1  3  2  0  0  0
  2  4  2  0  0  0
  3  8  1  0  0  0
  4  9  1  0  0  0
  5  6  2  0  0  0
  5 10  1  0  0  0
  6 12  1  0  0  0
  7 11  1  0  0  0
  7 12  2  0  0  0
  8  9  2  0  0  0
  8 13  1  0  0  0
  9 14  1  0  0  0
 10 11  2  0  0  0
 10 14  1  0  0  0
 11 15  1  0  0  0
 12 16  1  0  0  0
 13 24  1  0  0  0
 13 15  2  0  0  0
 19 21  1  0  0  0
 19 24  1  0  0  0
 20 22  1  0  0  0
 20 24  1  0  0  0
 21 25  1  0  0  0
 22 25  1  0  0  0
 23 25  1  0  0  0
 14 17  1  0  0  0
 15 18  1  0  0  0
 25 26  1  0  0  0
M  CHG 1  15   1
M  CHG 1  25   1
M  END
> <minimizedAffinity>
-5.54226

> <CNNscore>
0.3262839317

> <CNNaffinity>
5.4475474358

> <CNN_VS>
1.7774472237

> <CNNaffinity_variance>
0.0212421641

$$$$



 26 29  0  0  0  0  0  0  0  0999 V2000
   13.9903   -1.0486   61.5778 C   0  0  0  0  0  0  0  0  0  0  0  0
   15.3436   -1.0226   61.3020 C   0  0  0  0  0  0  0  0  0  0  0  0
   13.0918   -0.5051   60.6589 C   0  0  0  0  0  0  0  0  0  0  0  0
   15.7765   -0.4838   60.0952 C   0  0  0  0  0  0  0  0  0  0  0  0
   15.7604    0.3847   55.5482 C   0  0  0  0  0  0  0  0  0  0  0  0
   15.3294    0.4026   54.2241 C   0  0  0  0  0  0  0  0  0  0  0  0
   13.0850    0.6799   55.0142 C   0  0  0  0  0  0  0  0  0  0  0  0
   13.5086    0.0876   59.4405 C   0  0  0  0  0  0  0  0  0  0  0  0
   14.8746    0.0564   59.1447 C   0  0  0  0  0  0  0  0  0  0  0  0
   14.8625    0.5084   56.6375 C   0  0  0  0  0  0  0  0  0  0  0  0
   13.4997    0.6518   56.3667 C   0  0  0  0  0  0  0  0  0  0  0  0
   13.9813    0.5495   53.9552 C   0  0  0  0  0  0  0  0  0  0  0  0
   12.4832    0.7406   58.5936 C   0  0  0  0  0  0  0  0  0  0  0  0
   15.4276    0.4326   57.9152 N   0  0  0  0  0  0  0  0  0  0  0  0
   12.5083    0.8895   57.2739 N   0  0  0  0  0  0  0  0  0  0  0  0
   13.4179    0.5819   52.3311 Cl  0  0  0  0  0  0  0  0  0  0  0  0
   16.4411    0.5004   57.9232 H   0  0  0  0  0  0  0  0  0  0  0  0
   11.6400    1.2478   56.8798 H   0  0  0  0  0  0  0  0  0  0  0  0
   10.0909    0.5765   59.1235 C   0  0  0  0  0  0  0  0  0  0  0  0
   11.4290    2.4941   59.9516 C   0  0  0  0  0  0  0  0  0  0  0  0
    9.4512    0.4141   60.4944 C   0  0  0  0  0  0  0  0  0  0  0  0
   10.8028    2.3521   61.3313 C   0  0  0  0  0  0  0  0  0  0  0  0
    8.3690    2.6860   60.7342 C   0  0  0  0  0  0  0  0  0  0  0  0
   11.3875    1.2332   59.2230 N   0  0  0  0  0  0  0  0  0  0  0  0
    9.4247    1.7361   61.2296 N   0  0  0  0  0  0  0  0  0  0  0  0
    9.1427    1.5025   62.2257 H   0  0  0  0  0  0  0  0  0  0  0  0
  1  2  1  0  0  0
  1  3  2  0  0  0
  2  4  2  0  0  0
  3  8  1  0  0  0
  4  9  1  0  0  0
  5  6  2  0  0  0
  5 10  1  0  0  0
  6 12  1  0  0  0
  7 11  1  0  0  0
  7 12  2  0  0  0
  8  9  2  0  0  0
  8 13  1  0  0  0
  9 14  1  0  0  0
 10 11  2  0  0  0
 10 14  1  0  0  0
 11 15  1  0  0  0
 12 16  1  0  0  0
 13 24  1  0  0  0
 13 15  2  0  0  0
 19 21  1  0  0  0
 19 24  1  0  0  0
 20 22  1  0  0  0
 20 24  1  0  0  0
 21 25  1  0  0  0
 22 25  1  0  0  0
 23 25  1  0  0  0
 14 17  1  0  0  0
 15 18  1  0  0  0
 25 26  1  0  0  0
M  CHG 1  15   1
M  CHG 1  25   1
M  END
> <minimizedAffinity>
-6.49356

> <CNNscore>
0.3139892519

> <CNNaffinity>
6.1209855080

> <CNN_VS>
1.9219236374

> <CNNaffinity_variance>
0.1025069579

$$$$



 26 29  0  0  0  0  0  0  0  0999 V2000
   11.5639   -0.7606   61.3178 C   0  0  0  0  0  0  0  0  0  0  0  0
   11.3210   -0.6551   59.9621 C   0  0  0  0  0  0  0  0  0  0  0  0
   10.5598   -1.2401   62.1599 C   0  0  0  0  0  0  0  0  0  0  0  0
   10.0887   -1.0630   59.4632 C   0  0  0  0  0  0  0  0  0  0  0  0
    6.3286   -3.7240   59.0040 C   0  0  0  0  0  0  0  0  0  0  0  0
    5.4146   -4.7458   59.2487 C   0  0  0  0  0  0  0  0  0  0  0  0
    5.8142   -4.4691   61.5944 C   0  0  0  0  0  0  0  0  0  0  0  0
    9.2808   -1.6236   61.6839 C   0  0  0  0  0  0  0  0  0  0  0  0
    9.0654   -1.5681   60.3037 C   0  0  0  0  0  0  0  0  0  0  0  0
    7.0116   -3.0540   60.0492 C   0  0  0  0  0  0  0  0  0  0  0  0
    6.7555   -3.4374   61.3678 C   0  0  0  0  0  0  0  0  0  0  0  0
    5.1570   -5.1225   60.5536 C   0  0  0  0  0  0  0  0  0  0  0  0
    8.2501   -2.0053   62.6775 C   0  0  0  0  0  0  0  0  0  0  0  0
    7.9322   -2.0757   59.6578 N   0  0  0  0  0  0  0  0  0  0  0  0
    7.2329   -2.8404   62.4983 N   0  0  0  0  0  0  0  0  0  0  0  0
    4.0293   -6.3761   60.8894 Cl  0  0  0  0  0  0  0  0  0  0  0  0
    7.8631   -1.8115   58.6794 H   0  0  0  0  0  0  0  0  0  0  0  0
    6.7237   -3.0638   63.3518 H   0  0  0  0  0  0  0  0  0  0  0  0
    8.6968   -2.2625   65.0786 C   0  0  0  0  0  0  0  0  0  0  0  0
    8.0361   -0.0565   64.1563 C   0  0  0  0  0  0  0  0  0  0  0  0
    9.7999   -1.6055   65.8948 C   0  0  0  0  0  0  0  0  0  0  0  0
    9.1323    0.6238   64.9635 C   0  0  0  0  0  0  0  0  0  0  0  0
    8.4121   -0.0259   67.2981 C   0  0  0  0  0  0  0  0  0  0  0  0
    8.3542   -1.4574   63.9138 N   0  0  0  0  0  0  0  0  0  0  0  0
    9.4438   -0.1700   66.2132 N   0  0  0  0  0  0  0  0  0  0  0  0
   10.3278    0.2612   66.6117 H   0  0  0  0  0  0  0  0  0  0  0  0
  1  2  1  0  0  0
  1  3  2  0  0  0
  2  4  2  0  0  0
  3  8  1  0  0  0
  4  9  1  0  0  0
  5  6  2  0  0  0
  5 10  1  0  0  0
  6 12  1  0  0  0
  7 11  1  0  0  0
  7 12  2  0  0  0
  8  9  2  0  0  0
  8 13  1  0  0  0
  9 14  1  0  0  0
 10 11  2  0  0  0
 10 14  1  0  0  0
 11 15  1  0  0  0
 12 16  1  0  0  0
 13 24  1  0  0  0
 13 15  2  0  0  0
 19 21  1  0  0  0
 19 24  1  0  0  0
 20 22  1  0  0  0
 20 24  1  0  0  0
 21 25  1  0  0  0
 22 25  1  0  0  0
 23 25  1  0  0  0
 14 17  1  0  0  0
 15 18  1  0  0  0
 25 26  1  0  0  0
M  CHG 1  15   1
M  CHG 1  25   1
M  END
> <minimizedAffinity>
-6.08617

> <CNNscore>
0.2957753241

> <CNNaffinity>
5.9887933731

> <CNN_VS>
1.7713372707

> <CNNaffinity_variance>
0.0567082167

$$$$



 26 29  0  0  0  0  0  0  0  0999 V2000
   15.1344   -0.9708   54.8804 C   0  0  0  0  0  0  0  0  0  0  0  0
   14.1872   -0.7719   53.8948 C   0  0  0  0  0  0  0  0  0  0  0  0
   14.7484   -0.9344   56.2209 C   0  0  0  0  0  0  0  0  0  0  0  0
   12.8610   -0.5732   54.2631 C   0  0  0  0  0  0  0  0  0  0  0  0
    8.9361   -1.2220   56.6305 C   0  0  0  0  0  0  0  0  0  0  0  0
    8.0592   -1.7116   57.5951 C   0  0  0  0  0  0  0  0  0  0  0  0
    9.8503   -1.6380   59.1841 C   0  0  0  0  0  0  0  0  0  0  0  0
   13.4115   -0.6925   56.6255 C   0  0  0  0  0  0  0  0  0  0  0  0
   12.4510   -0.5507   55.6196 C   0  0  0  0  0  0  0  0  0  0  0  0
   10.2933   -0.9339   56.9187 C   0  0  0  0  0  0  0  0  0  0  0  0
   10.7612   -1.1520   58.2167 C   0  0  0  0  0  0  0  0  0  0  0  0
    8.5203   -1.9230   58.8811 C   0  0  0  0  0  0  0  0  0  0  0  0
   13.1329   -0.5562   58.0743 C   0  0  0  0  0  0  0  0  0  0  0  0
   11.0712   -0.4867   55.8452 N   0  0  0  0  0  0  0  0  0  0  0  0
   11.9962   -0.8344   58.7028 N   0  0  0  0  0  0  0  0  0  0  0  0
    7.4612   -2.5207   60.0965 Cl  0  0  0  0  0  0  0  0  0  0  0  0
   10.5318   -0.2244   55.0254 H   0  0  0  0  0  0  0  0  0  0  0  0
   12.0632   -0.7965   59.7185 H   0  0  0  0  0  0  0  0  0  0  0  0
   14.9544   -1.0261   59.6530 C   0  0  0  0  0  0  0  0  0  0  0  0
   14.4203    1.3111   59.0157 C   0  0  0  0  0  0  0  0  0  0  0  0
   16.4393   -0.7509   59.4681 C   0  0  0  0  0  0  0  0  0  0  0  0
   15.9000    1.6108   58.8246 C   0  0  0  0  0  0  0  0  0  0  0  0
   16.7440    1.1079   61.1540 C   0  0  0  0  0  0  0  0  0  0  0  0
   14.1472   -0.1112   58.8570 N   0  0  0  0  0  0  0  0  0  0  0  0
   16.7430    0.7125   59.7028 N   0  0  0  0  0  0  0  0  0  0  0  0
   17.7431    0.8518   59.3763 H   0  0  0  0  0  0  0  0  0  0  0  0
  1  2  1  0  0  0
  1  3  2  0  0  0
  2  4  2  0  0  0
  3  8  1  0  0  0
  4  9  1  0  0  0
  5  6  2  0  0  0
  5 10  1  0  0  0
  6 12  1  0  0  0
  7 11  1  0  0  0
  7 12  2  0  0  0
  8  9  2  0  0  0
  8 13  1  0  0  0
  9 14  1  0  0  0
 10 11  2  0  0  0
 10 14  1  0  0  0
 11 15  1  0  0  0
 12 16  1  0  0  0
 13 24  1  0  0  0
 13 15  2  0  0  0
 19 21  1  0  0  0
 19 24  1  0  0  0
 20 22  1  0  0  0
 20 24  1  0  0  0
 21 25  1  0  0  0
 22 25  1  0  0  0
 23 25  1  0  0  0
 14 17  1  0  0  0
 15 18  1  0  0  0
 25 26  1  0  0  0
M  CHG 1  15   1
M  CHG 1  25   1
M  END
> <minimizedAffinity>
-5.75511

> <CNNscore>
0.2943704724

> <CNNaffinity>
6.1268854141

> <CNN_VS>
1.8035742044

> <CNNaffinity_variance>
0.3162911534

$$$$



 26 29  0  0  0  0  0  0  0  0999 V2000
    7.8423   -0.9617   66.7682 C   0  0  0  0  0  0  0  0  0  0  0  0
    8.2102    0.3690   66.8143 C   0  0  0  0  0  0  0  0  0  0  0  0
    7.8303   -1.6287   65.5426 C   0  0  0  0  0  0  0  0  0  0  0  0
    8.5937    1.0045   65.6383 C   0  0  0  0  0  0  0  0  0  0  0  0
   10.6741    1.5144   61.5344 C   0  0  0  0  0  0  0  0  0  0  0  0
   11.3932    1.1918   60.3862 C   0  0  0  0  0  0  0  0  0  0  0  0
   10.3319   -0.9557   60.3894 C   0  0  0  0  0  0  0  0  0  0  0  0
    8.1763   -0.9942   64.3232 C   0  0  0  0  0  0  0  0  0  0  0  0
    8.6030    0.3355   64.3889 C   0  0  0  0  0  0  0  0  0  0  0  0
    9.7705    0.6068   62.1408 C   0  0  0  0  0  0  0  0  0  0  0  0
    9.6009   -0.6534   61.5624 C   0  0  0  0  0  0  0  0  0  0  0  0
   11.2221   -0.0533   59.8105 C   0  0  0  0  0  0  0  0  0  0  0  0
    8.0149   -1.7605   63.0654 C   0  0  0  0  0  0  0  0  0  0  0  0
    9.1464    1.0471   63.3130 N   0  0  0  0  0  0  0  0  0  0  0  0
    8.7038   -1.6101   61.9398 N   0  0  0  0  0  0  0  0  0  0  0  0
   12.0903   -0.4798   58.3891 Cl  0  0  0  0  0  0  0  0  0  0  0  0
    9.2542    2.0416   63.4898 H   0  0  0  0  0  0  0  0  0  0  0  0
    8.5225   -2.3301   61.2425 H   0  0  0  0  0  0  0  0  0  0  0  0
    7.3745   -4.0861   62.6042 C   0  0  0  0  0  0  0  0  0  0  0  0
    5.6839   -2.4557   63.4025 C   0  0  0  0  0  0  0  0  0  0  0  0
    6.8607   -5.1226   63.5925 C   0  0  0  0  0  0  0  0  0  0  0  0
    5.1519   -3.4755   64.3989 C   0  0  0  0  0  0  0  0  0  0  0  0
    4.4661   -5.3147   62.8057 C   0  0  0  0  0  0  0  0  0  0  0  0
    7.0710   -2.7343   63.0548 N   0  0  0  0  0  0  0  0  0  0  0  0
    5.3996   -4.8834   63.9033 N   0  0  0  0  0  0  0  0  0  0  0  0
    5.1753   -5.5179   64.7239 H   0  0  0  0  0  0  0  0  0  0  0  0
  1  2  1  0  0  0
  1  3  2  0  0  0
  2  4  2  0  0  0
  3  8  1  0  0  0
  4  9  1  0  0  0
  5  6  2  0  0  0
  5 10  1  0  0  0
  6 12  1  0  0  0
  7 11  1  0  0  0
  7 12  2  0  0  0
  8  9  2  0  0  0
  8 13  1  0  0  0
  9 14  1  0  0  0
 10 11  2  0  0  0
 10 14  1  0  0  0
 11 15  1  0  0  0
 12 16  1  0  0  0
 13 24  1  0  0  0
 13 15  2  0  0  0
 19 21  1  0  0  0
 19 24  1  0  0  0
 20 22  1  0  0  0
 20 24  1  0  0  0
 21 25  1  0  0  0
 22 25  1  0  0  0
 23 25  1  0  0  0
 14 17  1  0  0  0
 15 18  1  0  0  0
 25 26  1  0  0  0
M  CHG 1  15   1
M  CHG 1  25   1
M  END
> <minimizedAffinity>
-6.18460

> <CNNscore>
0.2898573577

> <CNNaffinity>
5.9981927872

> <CNN_VS>
1.7386202812

> <CNNaffinity_variance>
0.2578859329

$$$$



 30 34  0  0  0  0  0  0  0  0999 V2000
    8.2446   -2.9619   59.1347 C   0  0  0  0  0  0  0  0  0  0  0  0
    8.9769   -1.8022   58.8604 C   0  0  0  0  0  0  0  0  0  0  0  0
    7.9578   -3.3537   60.4607 C   0  0  0  0  0  0  0  0  0  0  0  0
    9.4170   -1.0530   59.9300 C   0  0  0  0  0  0  0  0  0  0  0  0
    8.4063   -2.6019   61.5527 C   0  0  0  0  0  0  0  0  0  0  0  0
    9.1183   -1.4520   61.2344 C   0  0  0  0  0  0  0  0  0  0  0  0
   11.9850   -0.1566   61.7663 C   0  0  0  0  0  0  0  0  0  0  0  0
    9.3540   -0.7681   63.5734 C   0  0  0  0  0  0  0  0  0  0  0  0
    9.1001   -2.2575   63.8718 C   0  0  0  0  0  0  0  0  0  0  0  0
   12.9759    0.3250   60.7246 C   0  0  0  0  0  0  0  0  0  0  0  0
   11.2164    0.5486   58.9802 C   0  0  0  0  0  0  0  0  0  0  0  0
   10.1178    0.2805   59.9987 C   0  0  0  0  0  0  0  0  0  0  0  0
   10.5495    0.3297   61.5087 C   0  0  0  0  0  0  0  0  0  0  0  0
    7.5114   -4.1177   63.2881 C   0  0  0  0  0  0  0  0  0  0  0  0
    9.6261   -0.5762   62.1767 N   0  0  0  0  0  0  0  0  0  0  0  0
    8.1991   -2.8998   62.8953 N   0  0  0  0  0  0  0  0  0  0  0  0
   12.5011   -0.1285   59.3682 N   0  0  0  0  0  0  0  0  0  0  0  0
   12.3190   -1.1398   59.4201 H   0  0  0  0  0  0  0  0  0  0  0  0
   13.5633    0.0554   58.3185 C   0  0  0  0  0  0  0  0  0  0  0  0
   14.9238    0.1332   58.9946 C   0  0  0  0  0  0  0  0  0  0  0  0
   15.9580   -0.7093   58.2462 C   0  0  0  0  0  0  0  0  0  0  0  0
   17.0005    0.1490   57.5454 C   0  0  0  0  0  0  0  0  0  0  0  0
   16.7251    1.2438   57.0600 O   0  0  0  0  0  0  0  0  0  0  0  0
   18.9082   -1.1966   58.4429 C   0  0  0  0  0  0  0  0  0  0  0  0
   19.2014    0.0025   56.3660 C   0  0  0  0  0  0  0  0  0  0  0  0
   20.2165   -1.6717   58.3534 C   0  0  0  0  0  0  0  0  0  0  0  0
   20.5098   -0.4727   56.2765 C   0  0  0  0  0  0  0  0  0  0  0  0
   18.4006   -0.3595   57.4492 C   0  0  0  0  0  0  0  0  0  0  0  0
   21.0174   -1.3097   57.2702 C   0  0  0  0  0  0  0  0  0  0  0  0
   22.2739   -1.7659   57.1842 F   0  0  0  0  0  0  0  0  0  0  0  0
  1  2  1  0  0  0
  1  3  2  0  0  0
 24 26  2  0  0  0
 24 28  1  0  0  0
 25 27  1  0  0  0
 25 28  2  0  0  0
  2  4  2  0  0  0
  3  5  1  0  0  0
 26 29  1  0  0  0
 27 29  2  0  0  0
 28 22  1  0  0  0
  4  6  1  0  0  0
  4 12  1  0  0  0
  5  6  2  0  0  0
  5 16  1  0  0  0
  6 15  1  0  0  0
 29 30  1  0  0  0
 22 21  1  0  0  0
 22 23  2  0  0  0
  7 10  1  0  0  0
  7 13  1  0  0  0
  8  9  1  0  0  0
  8 15  1  0  0  0
  9 16  1  0  0  0
 10 17  1  0  0  0
 11 12  1  0  0  0
 11 17  1  0  0  0
 12 13  1  0  0  0
 13 15  1  0  0  0
 14 16  1  0  0  0
 21 20  1  0  0  0
 20 19  1  0  0  0
 19 17  1  0  0  0
 17 18  1  0  0  0
M  CHG 1  17   1
M  END
> <minimizedAffinity>
-10.09300

> <CNNscore>
0.5162107348

> <CNNaffinity>
6.6465482712

> <CNN_VS>
3.4310195446

> <CNNaffinity_variance>
0.0114141814

$$$$



 30 34  0  0  0  0  0  0  0  0999 V2000
   10.2546   -0.8560   56.6702 C   0  0  0  0  0  0  0  0  0  0  0  0
   11.1893    0.0112   57.2452 C   0  0  0  0  0  0  0  0  0  0  0  0
    9.3950   -1.6435   57.4672 C   0  0  0  0  0  0  0  0  0  0  0  0
   11.2495    0.0695   58.6208 C   0  0  0  0  0  0  0  0  0  0  0  0
    9.4538   -1.5949   58.8647 C   0  0  0  0  0  0  0  0  0  0  0  0
   10.3870   -0.7113   59.3930 C   0  0  0  0  0  0  0  0  0  0  0  0
   12.9299   -0.7445   61.3196 C   0  0  0  0  0  0  0  0  0  0  0  0
    9.7308   -1.1650   61.7077 C   0  0  0  0  0  0  0  0  0  0  0  0
    9.1707   -2.4770   61.1274 C   0  0  0  0  0  0  0  0  0  0  0  0
   14.3188   -0.2233   61.0060 C   0  0  0  0  0  0  0  0  0  0  0  0
   13.4850    1.2492   59.1824 C   0  0  0  0  0  0  0  0  0  0  0  0
   12.0386    0.9542   59.5527 C   0  0  0  0  0  0  0  0  0  0  0  0
   11.8119    0.2369   60.9321 C   0  0  0  0  0  0  0  0  0  0  0  0
    7.7207   -3.3145   59.2508 C   0  0  0  0  0  0  0  0  0  0  0  0
   10.5784   -0.5143   60.7485 N   0  0  0  0  0  0  0  0  0  0  0  0
    8.6722   -2.3345   59.7457 N   0  0  0  0  0  0  0  0  0  0  0  0
   14.3870    0.0997   59.5357 N   0  0  0  0  0  0  0  0  0  0  0  0
   14.0601   -0.7261   59.0162 H   0  0  0  0  0  0  0  0  0  0  0  0
   15.8017    0.3473   59.0871 C   0  0  0  0  0  0  0  0  0  0  0  0
   15.7808    1.1007   57.7657 C   0  0  0  0  0  0  0  0  0  0  0  0
   16.4432    0.2822   56.6563 C   0  0  0  0  0  0  0  0  0  0  0  0
   17.8982    0.6724   56.4443 C   0  0  0  0  0  0  0  0  0  0  0  0
   18.2189    1.7415   55.9300 O   0  0  0  0  0  0  0  0  0  0  0  0
   20.0145   -0.5891   56.0139 C   0  0  0  0  0  0  0  0  0  0  0  0
   18.9138   -0.8509   58.1486 C   0  0  0  0  0  0  0  0  0  0  0  0
   21.0119   -1.4759   56.4193 C   0  0  0  0  0  0  0  0  0  0  0  0
   19.9111   -1.7378   58.5541 C   0  0  0  0  0  0  0  0  0  0  0  0
   18.9655   -0.2766   56.8786 C   0  0  0  0  0  0  0  0  0  0  0  0
   20.9602   -2.0503   57.6895 C   0  0  0  0  0  0  0  0  0  0  0  0
   21.9178   -2.9021   58.0788 F   0  0  0  0  0  0  0  0  0  0  0  0
  1  2  1  0  0  0
  1  3  2  0  0  0
 24 26  2  0  0  0
 24 28  1  0  0  0
 25 27  1  0  0  0
 25 28  2  0  0  0
  2  4  2  0  0  0
  3  5  1  0  0  0
 26 29  1  0  0  0
 27 29  2  0  0  0
 28 22  1  0  0  0
  4  6  1  0  0  0
  4 12  1  0  0  0
  5  6  2  0  0  0
  5 16  1  0  0  0
  6 15  1  0  0  0
 29 30  1  0  0  0
 22 21  1  0  0  0
 22 23  2  0  0  0
  7 10  1  0  0  0
  7 13  1  0  0  0
  8  9  1  0  0  0
  8 15  1  0  0  0
  9 16  1  0  0  0
 10 17  1  0  0  0
 11 12  1  0  0  0
 11 17  1  0  0  0
 12 13  1  0  0  0
 13 15  1  0  0  0
 14 16  1  0  0  0
 21 20  1  0  0  0
 20 19  1  0  0  0
 19 17  1  0  0  0
 17 18  1  0  0  0
M  CHG 1  17   1
M  END
> <minimizedAffinity>
-10.53637

> <CNNscore>
0.4978324771

> <CNNaffinity>
6.7464613914

> <CNN_VS>
3.3586075306

> <CNNaffinity_variance>
0.0948936790

$$$$



 30 34  0  0  0  0  0  0  0  0999 V2000
   10.3117   -0.9484   56.7279 C   0  0  0  0  0  0  0  0  0  0  0  0
   11.2174   -0.0424   57.2893 C   0  0  0  0  0  0  0  0  0  0  0  0
    9.4764   -1.7495   57.5371 C   0  0  0  0  0  0  0  0  0  0  0  0
   11.2737    0.0406   58.6637 C   0  0  0  0  0  0  0  0  0  0  0  0
    9.5316   -1.6758   58.9336 C   0  0  0  0  0  0  0  0  0  0  0  0
   10.4354   -0.7543   59.4480 C   0  0  0  0  0  0  0  0  0  0  0  0
   12.9752   -0.6745   61.3773 C   0  0  0  0  0  0  0  0  0  0  0  0
    9.7906   -1.1901   61.7693 C   0  0  0  0  0  0  0  0  0  0  0  0
    9.2733   -2.5288   61.2104 C   0  0  0  0  0  0  0  0  0  0  0  0
   14.3472   -0.1146   61.0564 C   0  0  0  0  0  0  0  0  0  0  0  0
   13.4697    1.3001   59.2077 C   0  0  0  0  0  0  0  0  0  0  0  0
   12.0329    0.9654   59.5814 C   0  0  0  0  0  0  0  0  0  0  0  0
   11.8271    0.2643   60.9724 C   0  0  0  0  0  0  0  0  0  0  0  0
    7.8535   -3.4431   59.3467 C   0  0  0  0  0  0  0  0  0  0  0  0
   10.6184   -0.5288   60.8002 N   0  0  0  0  0  0  0  0  0  0  0  0
    8.7726   -2.4252   59.8261 N   0  0  0  0  0  0  0  0  0  0  0  0
   14.4073    0.1860   59.5809 N   0  0  0  0  0  0  0  0  0  0  0  0
   14.1076   -0.6584   59.0749 H   0  0  0  0  0  0  0  0  0  0  0  0
   15.8140    0.4710   59.1296 C   0  0  0  0  0  0  0  0  0  0  0  0
   15.8826    0.3628   57.6137 C   0  0  0  0  0  0  0  0  0  0  0  0
   15.6508   -1.0777   57.1549 C   0  0  0  0  0  0  0  0  0  0  0  0
   14.7186   -1.1562   55.9552 C   0  0  0  0  0  0  0  0  0  0  0  0
   13.9352   -2.0898   55.7975 O   0  0  0  0  0  0  0  0  0  0  0  0
   15.9320    0.1825   54.2257 C   0  0  0  0  0  0  0  0  0  0  0  0
   13.6274    0.7202   54.7122 C   0  0  0  0  0  0  0  0  0  0  0  0
   15.9712    1.2062   53.2792 C   0  0  0  0  0  0  0  0  0  0  0  0
   13.6665    1.7440   53.7656 C   0  0  0  0  0  0  0  0  0  0  0  0
   14.7601   -0.0606   54.9422 C   0  0  0  0  0  0  0  0  0  0  0  0
   14.8384    1.9870   53.0491 C   0  0  0  0  0  0  0  0  0  0  0  0
   14.8759    2.9703   52.1403 F   0  0  0  0  0  0  0  0  0  0  0  0
  1  2  1  0  0  0
  1  3  2  0  0  0
 24 26  2  0  0  0
 24 28  1  0  0  0
 25 27  1  0  0  0
 25 28  2  0  0  0
  2  4  2  0  0  0
  3  5  1  0  0  0
 26 29  1  0  0  0
 27 29  2  0  0  0
 28 22  1  0  0  0
  4  6  1  0  0  0
  4 12  1  0  0  0
  5  6  2  0  0  0
  5 16  1  0  0  0
  6 15  1  0  0  0
 29 30  1  0  0  0
 22 21  1  0  0  0
 22 23  2  0  0  0
  7 10  1  0  0  0
  7 13  1  0  0  0
  8  9  1  0  0  0
  8 15  1  0  0  0
  9 16  1  0  0  0
 10 17  1  0  0  0
 11 12  1  0  0  0
 11 17  1  0  0  0
 12 13  1  0  0  0
 13 15  1  0  0  0
 14 16  1  0  0  0
 21 20  1  0  0  0
 20 19  1  0  0  0
 19 17  1  0  0  0
 17 18  1  0  0  0
M  CHG 1  17   1
M  END
> <minimizedAffinity>
-8.98145

> <CNNscore>
0.4648461342

> <CNNaffinity>
6.8362627029

> <CNN_VS>
3.1778101921

> <CNNaffinity_variance>
0.1443391293

$$$$



 30 34  0  0  0  0  0  0  0  0999 V2000
   10.6858   -0.7671   56.6084 C   0  0  0  0  0  0  0  0  0  0  0  0
   11.6575    0.0570   57.1855 C   0  0  0  0  0  0  0  0  0  0  0  0
    9.7529   -1.4702   57.4018 C   0  0  0  0  0  0  0  0  0  0  0  0
   11.6800    0.1576   58.5597 C   0  0  0  0  0  0  0  0  0  0  0  0
    9.7727   -1.3784   58.7982 C   0  0  0  0  0  0  0  0  0  0  0  0
   10.7454   -0.5395   59.3280 C   0  0  0  0  0  0  0  0  0  0  0  0
   13.2216   -0.6717   61.3356 C   0  0  0  0  0  0  0  0  0  0  0  0
    9.9916   -0.8718   61.6336 C   0  0  0  0  0  0  0  0  0  0  0  0
    9.3645   -2.1637   61.0774 C   0  0  0  0  0  0  0  0  0  0  0  0
   14.6504   -0.2519   61.0506 C   0  0  0  0  0  0  0  0  0  0  0  0
   13.9701    1.2090   59.1554 C   0  0  0  0  0  0  0  0  0  0  0  0
   12.4970    1.0205   59.4880 C   0  0  0  0  0  0  0  0  0  0  0  0
   12.1823    0.3662   60.8815 C   0  0  0  0  0  0  0  0  0  0  0  0
    7.9199   -2.9688   59.1826 C   0  0  0  0  0  0  0  0  0  0  0  0
   10.9084   -0.3098   60.6821 N   0  0  0  0  0  0  0  0  0  0  0  0
    8.9181   -2.0360   59.6765 N   0  0  0  0  0  0  0  0  0  0  0  0
   14.7838    0.0163   59.5738 N   0  0  0  0  0  0  0  0  0  0  0  0
   14.4193   -0.8038   59.0704 H   0  0  0  0  0  0  0  0  0  0  0  0
   16.2245    0.1569   59.1634 C   0  0  0  0  0  0  0  0  0  0  0  0
   16.3119    1.0852   57.9614 C   0  0  0  0  0  0  0  0  0  0  0  0
   17.3459    0.5821   56.9529 C   0  0  0  0  0  0  0  0  0  0  0  0
   16.8655    0.7254   55.5166 C   0  0  0  0  0  0  0  0  0  0  0  0
   17.4483    1.4369   54.7014 O   0  0  0  0  0  0  0  0  0  0  0  0
   15.2261   -1.1397   55.8150 C   0  0  0  0  0  0  0  0  0  0  0  0
   14.9332    0.3861   53.9648 C   0  0  0  0  0  0  0  0  0  0  0  0
   14.0888   -1.8419   55.4161 C   0  0  0  0  0  0  0  0  0  0  0  0
   13.7959   -0.3160   53.5659 C   0  0  0  0  0  0  0  0  0  0  0  0
   15.6483   -0.0257   55.0894 C   0  0  0  0  0  0  0  0  0  0  0  0
   13.3737   -1.4300   54.2914 C   0  0  0  0  0  0  0  0  0  0  0  0
   12.2817   -2.1043   53.9081 F   0  0  0  0  0  0  0  0  0  0  0  0
  1  2  1  0  0  0
  1  3  2  0  0  0
 24 26  2  0  0  0
 24 28  1  0  0  0
 25 27  1  0  0  0
 25 28  2  0  0  0
  2  4  2  0  0  0
  3  5  1  0  0  0
 26 29  1  0  0  0
 27 29  2  0  0  0
 28 22  1  0  0  0
  4  6  1  0  0  0
  4 12  1  0  0  0
  5  6  2  0  0  0
  5 16  1  0  0  0
  6 15  1  0  0  0
 29 30  1  0  0  0
 22 21  1  0  0  0
 22 23  2  0  0  0
  7 10  1  0  0  0
  7 13  1  0  0  0
  8  9  1  0  0  0
  8 15  1  0  0  0
  9 16  1  0  0  0
 10 17  1  0  0  0
 11 12  1  0  0  0
 11 17  1  0  0  0
 12 13  1  0  0  0
 13 15  1  0  0  0
 14 16  1  0  0  0
 21 20  1  0  0  0
 20 19  1  0  0  0
 19 17  1  0  0  0
 17 18  1  0  0  0
M  CHG 1  17   1
M  END
> <minimizedAffinity>
-9.74053

> <CNNscore>
0.4165511727

> <CNNaffinity>
6.8982591629

> <CNN_VS>
2.8734779358

> <CNNaffinity_variance>
0.2494439334

$$$$



 30 34  0  0  0  0  0  0  0  0999 V2000
    8.4579   -3.0234   59.3718 C   0  0  0  0  0  0  0  0  0  0  0  0
    9.2145   -1.8500   59.2886 C   0  0  0  0  0  0  0  0  0  0  0  0
    7.9407   -3.4786   60.6044 C   0  0  0  0  0  0  0  0  0  0  0  0
    9.4456   -1.1513   60.4537 C   0  0  0  0  0  0  0  0  0  0  0  0
    8.1759   -2.7784   61.7932 C   0  0  0  0  0  0  0  0  0  0  0  0
    8.9206   -1.6127   61.6626 C   0  0  0  0  0  0  0  0  0  0  0  0
   11.6292   -0.3360   62.7640 C   0  0  0  0  0  0  0  0  0  0  0  0
    8.7221   -1.0401   64.0347 C   0  0  0  0  0  0  0  0  0  0  0  0
    8.4353   -2.5427   64.2130 C   0  0  0  0  0  0  0  0  0  0  0  0
   12.7865    0.1973   61.9423 C   0  0  0  0  0  0  0  0  0  0  0  0
   11.3687    0.4987   59.9204 C   0  0  0  0  0  0  0  0  0  0  0  0
   10.1073    0.1794   60.7097 C   0  0  0  0  0  0  0  0  0  0  0  0
   10.2585    0.1580   62.2735 C   0  0  0  0  0  0  0  0  0  0  0  0
    6.9994   -4.3775   63.2658 C   0  0  0  0  0  0  0  0  0  0  0  0
    9.2399   -0.7812   62.7207 N   0  0  0  0  0  0  0  0  0  0  0  0
    7.7329   -3.1404   63.0609 N   0  0  0  0  0  0  0  0  0  0  0  0
   12.5698   -0.1925   60.5028 N   0  0  0  0  0  0  0  0  0  0  0  0
   12.3928   -1.2057   60.4740 H   0  0  0  0  0  0  0  0  0  0  0  0
   13.8020    0.0440   59.6725 C   0  0  0  0  0  0  0  0  0  0  0  0
   15.0322   -0.0884   60.5574 C   0  0  0  0  0  0  0  0  0  0  0  0
   16.2813    0.4298   59.8427 C   0  0  0  0  0  0  0  0  0  0  0  0
   16.7873   -0.5447   58.7898 C   0  0  0  0  0  0  0  0  0  0  0  0
   17.3387   -1.6013   59.0897 O   0  0  0  0  0  0  0  0  0  0  0  0
   17.5186    0.6342   56.7087 C   0  0  0  0  0  0  0  0  0  0  0  0
   15.5174   -0.7177   56.6418 C   0  0  0  0  0  0  0  0  0  0  0  0
   17.3473    0.9547   55.3621 C   0  0  0  0  0  0  0  0  0  0  0  0
   15.3460   -0.3973   55.2951 C   0  0  0  0  0  0  0  0  0  0  0  0
   16.6037   -0.2020   57.3485 C   0  0  0  0  0  0  0  0  0  0  0  0
   16.2609    0.4390   54.6552 C   0  0  0  0  0  0  0  0  0  0  0  0
   16.0962    0.7468   53.3621 F   0  0  0  0  0  0  0  0  0  0  0  0
  1  2  1  0  0  0
  1  3  2  0  0  0
 24 26  2  0  0  0
 24 28  1  0  0  0
 25 27  1  0  0  0
 25 28  2  0  0  0
  2  4  2  0  0  0
  3  5  1  0  0  0
 26 29  1  0  0  0
 27 29  2  0  0  0
 28 22  1  0  0  0
  4  6  1  0  0  0
  4 12  1  0  0  0
  5  6  2  0  0  0
  5 16  1  0  0  0
  6 15  1  0  0  0
 29 30  1  0  0  0
 22 21  1  0  0  0
 22 23  2  0  0  0
  7 10  1  0  0  0
  7 13  1  0  0  0
  8  9  1  0  0  0
  8 15  1  0  0  0
  9 16  1  0  0  0
 10 17  1  0  0  0
 11 12  1  0  0  0
 11 17  1  0  0  0
 12 13  1  0  0  0
 13 15  1  0  0  0
 14 16  1  0  0  0
 21 20  1  0  0  0
 20 19  1  0  0  0
 19 17  1  0  0  0
 17 18  1  0  0  0
M  CHG 1  17   1
M  END
> <minimizedAffinity>
-9.50036

> <CNNscore>
0.3416138589

> <CNNaffinity>
6.5545516014

> <CNN_VS>
2.2391257286

> <CNNaffinity_variance>
0.0058004213

$$$$



 30 34  0  0  0  0  0  0  0  0999 V2000
    8.8570   -3.5585   59.9818 C   0  0  0  0  0  0  0  0  0  0  0  0
    9.2656   -2.5444   59.1096 C   0  0  0  0  0  0  0  0  0  0  0  0
    8.7828   -3.3437   61.3755 C   0  0  0  0  0  0  0  0  0  0  0  0
    9.6006   -1.3244   59.6558 C   0  0  0  0  0  0  0  0  0  0  0  0
    9.1272   -2.1098   61.9391 C   0  0  0  0  0  0  0  0  0  0  0  0
    9.5148   -1.1278   61.0356 C   0  0  0  0  0  0  0  0  0  0  0  0
   12.0225    0.7500   60.4316 C   0  0  0  0  0  0  0  0  0  0  0  0
    9.7727    0.5802   62.7707 C   0  0  0  0  0  0  0  0  0  0  0  0
    9.9078   -0.6259   63.7187 C   0  0  0  0  0  0  0  0  0  0  0  0
   12.7799    0.8676   59.1234 C   0  0  0  0  0  0  0  0  0  0  0  0
   10.8800   -0.0460   57.8027 C   0  0  0  0  0  0  0  0  0  0  0  0
    9.9654   -0.0073   59.0185 C   0  0  0  0  0  0  0  0  0  0  0  0
   10.4962    0.8028   60.2558 C   0  0  0  0  0  0  0  0  0  0  0  0
    8.7673   -2.7944   64.2867 C   0  0  0  0  0  0  0  0  0  0  0  0
    9.8746    0.1562   61.4026 N   0  0  0  0  0  0  0  0  0  0  0  0
    9.1089   -1.7914   63.2928 N   0  0  0  0  0  0  0  0  0  0  0  0
   12.3169   -0.2321   58.2030 N   0  0  0  0  0  0  0  0  0  0  0  0
   12.3868   -1.1218   58.7150 H   0  0  0  0  0  0  0  0  0  0  0  0
   13.2138   -0.3649   57.0022 C   0  0  0  0  0  0  0  0  0  0  0  0
   14.5337    0.3360   57.2862 C   0  0  0  0  0  0  0  0  0  0  0  0
   15.6652   -0.6768   57.4694 C   0  0  0  0  0  0  0  0  0  0  0  0
   16.8325   -0.0989   58.2554 C   0  0  0  0  0  0  0  0  0  0  0  0
   16.6678    0.6884   59.1844 O   0  0  0  0  0  0  0  0  0  0  0  0
   18.7609   -0.1017   56.6626 C   0  0  0  0  0  0  0  0  0  0  0  0
   18.9736   -1.2920   58.7543 C   0  0  0  0  0  0  0  0  0  0  0  0
   20.0567   -0.4824   56.3141 C   0  0  0  0  0  0  0  0  0  0  0  0
   20.2695   -1.6727   58.4058 C   0  0  0  0  0  0  0  0  0  0  0  0
   18.2194   -0.5064   57.8827 C   0  0  0  0  0  0  0  0  0  0  0  0
   20.8110   -1.2680   57.1857 C   0  0  0  0  0  0  0  0  0  0  0  0
   22.0554   -1.6338   56.8510 F   0  0  0  0  0  0  0  0  0  0  0  0
  1  2  1  0  0  0
  1  3  2  0  0  0
 24 26  2  0  0  0
 24 28  1  0  0  0
 25 27  1  0  0  0
 25 28  2  0  0  0
  2  4  2  0  0  0
  3  5  1  0  0  0
 26 29  1  0  0  0
 27 29  2  0  0  0
 28 22  1  0  0  0
  4  6  1  0  0  0
  4 12  1  0  0  0
  5  6  2  0  0  0
  5 16  1  0  0  0
  6 15  1  0  0  0
 29 30  1  0  0  0
 22 21  1  0  0  0
 22 23  2  0  0  0
  7 10  1  0  0  0
  7 13  1  0  0  0
  8  9  1  0  0  0
  8 15  1  0  0  0
  9 16  1  0  0  0
 10 17  1  0  0  0
 11 12  1  0  0  0
 11 17  1  0  0  0
 12 13  1  0  0  0
 13 15  1  0  0  0
 14 16  1  0  0  0
 21 20  1  0  0  0
 20 19  1  0  0  0
 19 17  1  0  0  0
 17 18  1  0  0  0
M  CHG 1  17   1
M  END
> <minimizedAffinity>
-10.73407

> <CNNscore>
0.3032176495

> <CNNaffinity>
6.4039549828

> <CNN_VS>
1.9417921305

> <CNNaffinity_variance>
0.0699626356

$$$$



 30 34  0  0  0  0  0  0  0  0999 V2000
   16.3890   -0.9414   59.5684 C   0  0  0  0  0  0  0  0  0  0  0  0
   15.4806   -0.3520   58.6832 C   0  0  0  0  0  0  0  0  0  0  0  0
   17.7474   -1.1118   59.2222 C   0  0  0  0  0  0  0  0  0  0  0  0
   15.9535    0.0542   57.4542 C   0  0  0  0  0  0  0  0  0  0  0  0
   18.2345   -0.7076   57.9739 C   0  0  0  0  0  0  0  0  0  0  0  0
   17.3013   -0.1159   57.1316 C   0  0  0  0  0  0  0  0  0  0  0  0
   16.0484   -0.5437   54.2287 C   0  0  0  0  0  0  0  0  0  0  0  0
   18.9509    0.3521   55.3839 C   0  0  0  0  0  0  0  0  0  0  0  0
   19.7574   -0.7711   56.0621 C   0  0  0  0  0  0  0  0  0  0  0  0
   14.5784   -0.6707   53.8793 C   0  0  0  0  0  0  0  0  0  0  0  0
   13.8586    0.4449   55.9832 C   0  0  0  0  0  0  0  0  0  0  0  0
   15.2955    0.8098   56.3272 C   0  0  0  0  0  0  0  0  0  0  0  0
   16.3479    0.6310   55.1742 C   0  0  0  0  0  0  0  0  0  0  0  0
   20.5470   -1.5025   58.3352 C   0  0  0  0  0  0  0  0  0  0  0  0
   17.5990    0.3607   55.8678 N   0  0  0  0  0  0  0  0  0  0  0  0
   19.5426   -0.8408   57.5205 N   0  0  0  0  0  0  0  0  0  0  0  0
   13.7938   -0.8101   55.1583 N   0  0  0  0  0  0  0  0  0  0  0  0
   14.2196   -1.5686   55.7080 H   0  0  0  0  0  0  0  0  0  0  0  0
   12.3724   -1.2271   54.8946 C   0  0  0  0  0  0  0  0  0  0  0  0
   11.4471   -0.4610   55.8279 C   0  0  0  0  0  0  0  0  0  0  0  0
   10.7523   -1.4058   56.8098 C   0  0  0  0  0  0  0  0  0  0  0  0
   10.4790   -0.7419   58.1510 C   0  0  0  0  0  0  0  0  0  0  0  0
   10.7313    0.4432   58.3560 O   0  0  0  0  0  0  0  0  0  0  0  0
   10.0514   -1.1724   60.5774 C   0  0  0  0  0  0  0  0  0  0  0  0
    9.1603   -2.7138   58.9442 C   0  0  0  0  0  0  0  0  0  0  0  0
    9.4954   -1.9373   61.6027 C   0  0  0  0  0  0  0  0  0  0  0  0
    8.6043   -3.4787   59.9696 C   0  0  0  0  0  0  0  0  0  0  0  0
    9.8838   -1.5606   59.2481 C   0  0  0  0  0  0  0  0  0  0  0  0
    8.7719   -3.0905   61.2989 C   0  0  0  0  0  0  0  0  0  0  0  0
    8.2381   -3.8252   62.2835 F   0  0  0  0  0  0  0  0  0  0  0  0
  1  2  1  0  0  0
  1  3  2  0  0  0
 24 26  2  0  0  0
 24 28  1  0  0  0
 25 27  1  0  0  0
 25 28  2  0  0  0
  2  4  2  0  0  0
  3  5  1  0  0  0
 26 29  1  0  0  0
 27 29  2  0  0  0
 28 22  1  0  0  0
  4  6  1  0  0  0
  4 12  1  0  0  0
  5  6  2  0  0  0
  5 16  1  0  0  0
  6 15  1  0  0  0
 29 30  1  0  0  0
 22 21  1  0  0  0
 22 23  2  0  0  0
  7 10  1  0  0  0
  7 13  1  0  0  0
  8  9  1  0  0  0
  8 15  1  0  0  0
  9 16  1  0  0  0
 10 17  1  0  0  0
 11 12  1  0  0  0
 11 17  1  0  0  0
 12 13  1  0  0  0
 13 15  1  0  0  0
 14 16  1  0  0  0
 21 20  1  0  0  0
 20 19  1  0  0  0
 19 17  1  0  0  0
 17 18  1  0  0  0
M  CHG 1  17   1
M  END
> <minimizedAffinity>
-9.54075

> <CNNscore>
0.2653701603

> <CNNaffinity>
6.6420760155

> <CNN_VS>
1.7626087666

> <CNNaffinity_variance>
0.1058033705

$$$$



 30 34  0  0  0  0  0  0  0  0999 V2000
    7.0317    0.7369   65.3592 C   0  0  0  0  0  0  0  0  0  0  0  0
    8.3122    0.7626   64.7970 C   0  0  0  0  0  0  0  0  0  0  0  0
    6.1843   -0.3823   65.2064 C   0  0  0  0  0  0  0  0  0  0  0  0
    8.7211   -0.3415   64.0809 C   0  0  0  0  0  0  0  0  0  0  0  0
    6.5893   -1.5050   64.4756 C   0  0  0  0  0  0  0  0  0  0  0  0
    7.8724   -1.4420   63.9459 C   0  0  0  0  0  0  0  0  0  0  0  0
    9.3304   -1.6014   61.1125 C   0  0  0  0  0  0  0  0  0  0  0  0
    7.7691   -3.7103   63.0300 C   0  0  0  0  0  0  0  0  0  0  0  0
    6.2448   -3.5079   63.1161 C   0  0  0  0  0  0  0  0  0  0  0  0
   10.2723   -0.5760   60.5124 C   0  0  0  0  0  0  0  0  0  0  0  0
   10.7965    0.4183   62.7317 C   0  0  0  0  0  0  0  0  0  0  0  0
   10.0451   -0.6929   63.4505 C   0  0  0  0  0  0  0  0  0  0  0  0
    9.6547   -1.9392   62.5769 C   0  0  0  0  0  0  0  0  0  0  0  0
    4.4684   -2.7493   64.7268 C   0  0  0  0  0  0  0  0  0  0  0  0
    8.4516   -2.4598   63.2101 N   0  0  0  0  0  0  0  0  0  0  0  0
    5.8358   -2.6512   64.2461 N   0  0  0  0  0  0  0  0  0  0  0  0
   10.2288    0.6676   61.3624 N   0  0  0  0  0  0  0  0  0  0  0  0
    9.2423    0.9369   61.4765 H   0  0  0  0  0  0  0  0  0  0  0  0
   10.9066    1.8272   60.6842 C   0  0  0  0  0  0  0  0  0  0  0  0
   10.6813    1.7275   59.1831 C   0  0  0  0  0  0  0  0  0  0  0  0
   11.9704    2.0202   58.4136 C   0  0  0  0  0  0  0  0  0  0  0  0
   12.5146    0.7847   57.7123 C   0  0  0  0  0  0  0  0  0  0  0  0
   11.9073    0.2329   56.7975 O   0  0  0  0  0  0  0  0  0  0  0  0
   14.1082    0.0952   59.5125 C   0  0  0  0  0  0  0  0  0  0  0  0
   14.7784   -0.1500   57.2043 C   0  0  0  0  0  0  0  0  0  0  0  0
   15.3364   -0.4219   59.9242 C   0  0  0  0  0  0  0  0  0  0  0  0
   16.0068   -0.6671   57.6160 C   0  0  0  0  0  0  0  0  0  0  0  0
   13.8292    0.2311   58.1526 C   0  0  0  0  0  0  0  0  0  0  0  0
   16.2858   -0.8031   58.9759 C   0  0  0  0  0  0  0  0  0  0  0  0
   17.4654   -1.2995   59.3712 F   0  0  0  0  0  0  0  0  0  0  0  0
  1  2  1  0  0  0
  1  3  2  0  0  0
 24 26  2  0  0  0
 24 28  1  0  0  0
 25 27  1  0  0  0
 25 28  2  0  0  0
  2  4  2  0  0  0
  3  5  1  0  0  0
 26 29  1  0  0  0
 27 29  2  0  0  0
 28 22  1  0  0  0
  4  6  1  0  0  0
  4 12  1  0  0  0
  5  6  2  0  0  0
  5 16  1  0  0  0
  6 15  1  0  0  0
 29 30  1  0  0  0
 22 21  1  0  0  0
 22 23  2  0  0  0
  7 10  1  0  0  0
  7 13  1  0  0  0
  8  9  1  0  0  0
  8 15  1  0  0  0
  9 16  1  0  0  0
 10 17  1  0  0  0
 11 12  1  0  0  0
 11 17  1  0  0  0
 12 13  1  0  0  0
 13 15  1  0  0  0
 14 16  1  0  0  0
 21 20  1  0  0  0
 20 19  1  0  0  0
 19 17  1  0  0  0
 17 18  1  0  0  0
M  CHG 1  17   1
M  END
> <minimizedAffinity>
-9.39636

> <CNNscore>
0.2478954047

> <CNNaffinity>
6.4065637589

> <CNN_VS>
1.5881577730

> <CNNaffinity_variance>
0.1898165196

$$$$



 30 34  0  0  0  0  0  0  0  0999 V2000
   16.6491   -0.9704   59.6125 C   0  0  0  0  0  0  0  0  0  0  0  0
   15.6693   -0.4121   58.7851 C   0  0  0  0  0  0  0  0  0  0  0  0
   17.9839   -1.1169   59.1755 C   0  0  0  0  0  0  0  0  0  0  0  0
   16.0477   -0.0126   57.5216 C   0  0  0  0  0  0  0  0  0  0  0  0
   18.3752   -0.7195   57.8919 C   0  0  0  0  0  0  0  0  0  0  0  0
   17.3736   -0.1588   57.1088 C   0  0  0  0  0  0  0  0  0  0  0  0
   15.9337   -0.6518   54.3047 C   0  0  0  0  0  0  0  0  0  0  0  0
   18.8886    0.3200   55.2461 C   0  0  0  0  0  0  0  0  0  0  0  0
   19.7641   -0.7768   55.8804 C   0  0  0  0  0  0  0  0  0  0  0  0
   14.4464   -0.8143   54.0591 C   0  0  0  0  0  0  0  0  0  0  0  0
   13.8486    0.3142   56.1941 C   0  0  0  0  0  0  0  0  0  0  0  0
   15.2975    0.7137   56.4337 C   0  0  0  0  0  0  0  0  0  0  0  0
   16.2718    0.5415   55.2131 C   0  0  0  0  0  0  0  0  0  0  0  0
   20.7238   -1.4608   58.1022 C   0  0  0  0  0  0  0  0  0  0  0  0
   17.5732    0.3068   55.8219 N   0  0  0  0  0  0  0  0  0  0  0  0
   19.6515   -0.8313   57.3509 N   0  0  0  0  0  0  0  0  0  0  0  0
   13.7547   -0.9529   55.3908 N   0  0  0  0  0  0  0  0  0  0  0  0
   14.2337   -1.6948   55.9188 H   0  0  0  0  0  0  0  0  0  0  0  0
   12.3280   -1.4031   55.2308 C   0  0  0  0  0  0  0  0  0  0  0  0
   11.4115   -0.4143   55.9353 C   0  0  0  0  0  0  0  0  0  0  0  0
   10.9703   -0.9496   57.2985 C   0  0  0  0  0  0  0  0  0  0  0  0
    9.8043   -0.1614   57.8759 C   0  0  0  0  0  0  0  0  0  0  0  0
    8.6353   -0.4618   57.6447 O   0  0  0  0  0  0  0  0  0  0  0  0
   11.3127    1.6834   58.6356 C   0  0  0  0  0  0  0  0  0  0  0  0
    9.1512    1.4363   59.6863 C   0  0  0  0  0  0  0  0  0  0  0  0
   11.5853    2.7795   59.4539 C   0  0  0  0  0  0  0  0  0  0  0  0
    9.4238    2.5325   60.5046 C   0  0  0  0  0  0  0  0  0  0  0  0
   10.0957    1.0118   58.7517 C   0  0  0  0  0  0  0  0  0  0  0  0
   10.6409    3.2041   60.3885 C   0  0  0  0  0  0  0  0  0  0  0  0
   10.9026    4.2567   61.1745 F   0  0  0  0  0  0  0  0  0  0  0  0
  1  2  1  0  0  0
  1  3  2  0  0  0
 24 26  2  0  0  0
 24 28  1  0  0  0
 25 27  1  0  0  0
 25 28  2  0  0  0
  2  4  2  0  0  0
  3  5  1  0  0  0
 26 29  1  0  0  0
 27 29  2  0  0  0
 28 22  1  0  0  0
  4  6  1  0  0  0
  4 12  1  0  0  0
  5  6  2  0  0  0
  5 16  1  0  0  0
  6 15  1  0  0  0
 29 30  1  0  0  0
 22 21  1  0  0  0
 22 23  2  0  0  0
  7 10  1  0  0  0
  7 13  1  0  0  0
  8  9  1  0  0  0
  8 15  1  0  0  0
  9 16  1  0  0  0
 10 17  1  0  0  0
 11 12  1  0  0  0
 11 17  1  0  0  0
 12 13  1  0  0  0
 13 15  1  0  0  0
 14 16  1  0  0  0
 21 20  1  0  0  0
 20 19  1  0  0  0
 19 17  1  0  0  0
 17 18  1  0  0  0
M  CHG 1  17   1
M  END
> <minimizedAffinity>
-10.36300

> <CNNscore>
0.2454853803

> <CNNaffinity>
6.6832451820

> <CNN_VS>
1.6406389475

> <CNNaffinity_variance>
0.1369498521

$$$$



 27 30  0  0  0  0  0  0  0  0999 V2000
   11.8485    0.0372   62.0813 C   0  0  0  0  0  0  0  0  0  0  0  0
   11.2043    0.6311   59.7833 C   0  0  0  0  0  0  0  0  0  0  0  0
   13.2436   -0.3714   61.6237 C   0  0  0  0  0  0  0  0  0  0  0  0
   12.5892    0.2382   59.2731 C   0  0  0  0  0  0  0  0  0  0  0  0
   10.8969   -0.1522   60.9843 N   0  0  0  0  0  0  0  0  0  0  0  0
   13.6028    0.4250   60.3843 N   0  0  0  0  0  0  0  0  0  0  0  0
   13.5922    1.4256   60.6464 H   0  0  0  0  0  0  0  0  0  0  0  0
    8.7777   -2.8338   59.6027 C   0  0  0  0  0  0  0  0  0  0  0  0
    9.6215   -1.7253   59.6737 C   0  0  0  0  0  0  0  0  0  0  0  0
    8.3676   -3.4741   60.7722 C   0  0  0  0  0  0  0  0  0  0  0  0
    9.6451   -1.8976   62.0835 C   0  0  0  0  0  0  0  0  0  0  0  0
   10.0552   -1.2572   60.9140 C   0  0  0  0  0  0  0  0  0  0  0  0
    8.8013   -3.0060   62.0126 C   0  0  0  0  0  0  0  0  0  0  0  0
    8.2956   -3.7973   63.4546 Cl  0  0  0  0  0  0  0  0  0  0  0  0
   15.0009    0.1301   59.9186 C   0  0  0  0  0  0  0  0  0  0  0  0
   15.4706    1.2590   59.0096 C   0  0  0  0  0  0  0  0  0  0  0  0
   15.7761    0.7743   57.5948 C   0  0  0  0  0  0  0  0  0  0  0  0
   21.0917   -1.7606   57.8812 C   0  0  0  0  0  0  0  0  0  0  0  0
   19.9181   -1.7026   58.5314 C   0  0  0  0  0  0  0  0  0  0  0  0
   21.3290   -1.0079   56.6636 C   0  0  0  0  0  0  0  0  0  0  0  0
   20.3594   -0.2289   56.1618 C   0  0  0  0  0  0  0  0  0  0  0  0
   18.8642   -0.8363   57.9580 C   0  0  0  0  0  0  0  0  0  0  0  0
   18.0312    0.5635   56.4878 C   0  0  0  0  0  0  0  0  0  0  0  0
   17.6675   -0.6299   58.4115 N   0  0  0  0  0  0  0  0  0  0  0  0
   19.1599   -0.1607   56.8130 N   0  0  0  0  0  0  0  0  0  0  0  0
   17.1173    0.2470   57.5079 N   0  0  0  0  0  0  0  0  0  0  0  0
   17.8562    1.3098   55.5355 O   0  0  0  0  0  0  0  0  0  0  0  0
  8  9  2  0  0  0
  8 10  1  0  0  0
  9 12  1  0  0  0
 10 13  2  0  0  0
 11 12  2  0  0  0
 11 13  1  0  0  0
 12  5  1  0  0  0
 13 14  1  0  0  0
 18 19  2  0  0  0
 18 20  1  0  0  0
 19 22  1  0  0  0
 20 21  2  0  0  0
 21 25  1  0  0  0
 22 24  2  0  0  0
 22 25  1  0  0  0
 23 25  1  0  0  0
 23 26  1  0  0  0
 23 27  2  0  0  0
  1  3  1  0  0  0
  1  5  1  0  0  0
  2  4  1  0  0  0
  2  5  1  0  0  0
  3  6  1  0  0  0
  4  6  1  0  0  0
 16 17  1  0  0  0
 16 15  1  0  0  0
 17 26  1  0  0  0
 15  6  1  0  0  0
 24 26  1  0  0  0
  6  7  1  0  0  0
M  CHG 1   6   1
M  END
> <minimizedAffinity>
-10.03531

> <CNNscore>
0.7943434119

> <CNNaffinity>
6.7659797668

> <CNN_VS>
5.3745112419

> <CNNaffinity_variance>
0.0171122868

$$$$



 27 30  0  0  0  0  0  0  0  0999 V2000
   11.5620   -0.1493   58.6225 C   0  0  0  0  0  0  0  0  0  0  0  0
   12.8302    1.8963   58.1169 C   0  0  0  0  0  0  0  0  0  0  0  0
   12.6518   -0.6343   59.5712 C   0  0  0  0  0  0  0  0  0  0  0  0
   13.9497    1.4580   59.0589 C   0  0  0  0  0  0  0  0  0  0  0  0
   12.1537    0.7061   57.5914 N   0  0  0  0  0  0  0  0  0  0  0  0
   13.3718    0.5713   60.1435 N   0  0  0  0  0  0  0  0  0  0  0  0
   12.6726    1.1317   60.6603 H   0  0  0  0  0  0  0  0  0  0  0  0
   11.9933   -1.3071   54.5073 C   0  0  0  0  0  0  0  0  0  0  0  0
   11.7177   -0.8412   55.7929 C   0  0  0  0  0  0  0  0  0  0  0  0
   12.9802   -0.6900   53.7385 C   0  0  0  0  0  0  0  0  0  0  0  0
   13.4159    0.8588   55.5408 C   0  0  0  0  0  0  0  0  0  0  0  0
   12.4290    0.2417   56.3097 C   0  0  0  0  0  0  0  0  0  0  0  0
   13.6915    0.3929   54.2553 C   0  0  0  0  0  0  0  0  0  0  0  0
   14.9081    1.1541   53.3056 Cl  0  0  0  0  0  0  0  0  0  0  0  0
   14.4134    0.1716   61.1504 C   0  0  0  0  0  0  0  0  0  0  0  0
   15.7788    0.1583   60.4745 C   0  0  0  0  0  0  0  0  0  0  0  0
   15.8561   -0.8655   59.3451 C   0  0  0  0  0  0  0  0  0  0  0  0
   21.3728   -1.1438   57.2829 C   0  0  0  0  0  0  0  0  0  0  0  0
   20.6074   -1.5725   58.2999 C   0  0  0  0  0  0  0  0  0  0  0  0
   20.8380   -0.3101   56.2225 C   0  0  0  0  0  0  0  0  0  0  0  0
   19.5462    0.0500   56.2450 C   0  0  0  0  0  0  0  0  0  0  0  0
   19.1857   -1.1620   58.3021 C   0  0  0  0  0  0  0  0  0  0  0  0
   17.4166   -0.1387   57.5034 C   0  0  0  0  0  0  0  0  0  0  0  0
   18.2724   -1.4553   59.1741 N   0  0  0  0  0  0  0  0  0  0  0  0
   18.7558   -0.3795   57.2736 N   0  0  0  0  0  0  0  0  0  0  0  0
   17.1468   -0.8260   58.6996 N   0  0  0  0  0  0  0  0  0  0  0  0
   16.6366    0.5181   56.8291 O   0  0  0  0  0  0  0  0  0  0  0  0
  8  9  2  0  0  0
  8 10  1  0  0  0
  9 12  1  0  0  0
 10 13  2  0  0  0
 11 12  2  0  0  0
 11 13  1  0  0  0
 12  5  1  0  0  0
 13 14  1  0  0  0
 18 19  2  0  0  0
 18 20  1  0  0  0
 19 22  1  0  0  0
 20 21  2  0  0  0
 21 25  1  0  0  0
 22 24  2  0  0  0
 22 25  1  0  0  0
 23 25  1  0  0  0
 23 26  1  0  0  0
 23 27  2  0  0  0
  1  3  1  0  0  0
  1  5  1  0  0  0
  2  4  1  0  0  0
  2  5  1  0  0  0
  3  6  1  0  0  0
  4  6  1  0  0  0
 16 17  1  0  0  0
 16 15  1  0  0  0
 17 26  1  0  0  0
 15  6  1  0  0  0
 24 26  1  0  0  0
  6  7  1  0  0  0
M  CHG 1   6   1
M  END
> <minimizedAffinity>
-8.93624

> <CNNscore>
0.6252104044

> <CNNaffinity>
7.1225190163

> <CNN_VS>
4.4530730247

> <CNNaffinity_variance>
0.0855443850

$$$$



 27 30  0  0  0  0  0  0  0  0999 V2000
   12.3801   -0.0083   62.1874 C   0  0  0  0  0  0  0  0  0  0  0  0
   10.5664    1.4560   61.4033 C   0  0  0  0  0  0  0  0  0  0  0  0
   13.0490    0.0258   60.8184 C   0  0  0  0  0  0  0  0  0  0  0  0
   11.1976    1.5260   60.0142 C   0  0  0  0  0  0  0  0  0  0  0  0
   10.9365    0.1846   62.0334 N   0  0  0  0  0  0  0  0  0  0  0  0
   12.6959    1.3329   60.1358 N   0  0  0  0  0  0  0  0  0  0  0  0
   13.0585    2.0988   60.7290 H   0  0  0  0  0  0  0  0  0  0  0  0
    8.4660   -2.2423   63.2971 C   0  0  0  0  0  0  0  0  0  0  0  0
    9.3680   -1.1791   63.2579 C   0  0  0  0  0  0  0  0  0  0  0  0
    8.2334   -3.0023   62.1508 C   0  0  0  0  0  0  0  0  0  0  0  0
    9.8047   -1.6358   60.9259 C   0  0  0  0  0  0  0  0  0  0  0  0
   10.0374   -0.8758   62.0722 C   0  0  0  0  0  0  0  0  0  0  0  0
    8.9028   -2.6991   60.9652 C   0  0  0  0  0  0  0  0  0  0  0  0
    8.6144   -3.6366   59.5513 Cl  0  0  0  0  0  0  0  0  0  0  0  0
   13.3852    1.4714   58.8075 C   0  0  0  0  0  0  0  0  0  0  0  0
   14.7750    0.8544   58.9020 C   0  0  0  0  0  0  0  0  0  0  0  0
   15.1090   -0.0092   57.6887 C   0  0  0  0  0  0  0  0  0  0  0  0
   20.8497   -1.3239   57.9722 C   0  0  0  0  0  0  0  0  0  0  0  0
   19.7003   -1.4807   58.6491 C   0  0  0  0  0  0  0  0  0  0  0  0
   20.9019   -0.6108   56.7096 C   0  0  0  0  0  0  0  0  0  0  0  0
   19.7802   -0.0888   56.1920 C   0  0  0  0  0  0  0  0  0  0  0  0
   18.4765   -0.8959   58.0574 C   0  0  0  0  0  0  0  0  0  0  0  0
   17.3407    0.2037   56.5356 C   0  0  0  0  0  0  0  0  0  0  0  0
   17.2699   -0.9246   58.5304 N   0  0  0  0  0  0  0  0  0  0  0  0
   18.6035   -0.2412   56.8699 N   0  0  0  0  0  0  0  0  0  0  0  0
   16.5310   -0.2408   57.5952 N   0  0  0  0  0  0  0  0  0  0  0  0
   16.9955    0.8377   55.5491 O   0  0  0  0  0  0  0  0  0  0  0  0
  8  9  2  0  0  0
  8 10  1  0  0  0
  9 12  1  0  0  0
 10 13  2  0  0  0
 11 12  2  0  0  0
 11 13  1  0  0  0
 12  5  1  0  0  0
 13 14  1  0  0  0
 18 19  2  0  0  0
 18 20  1  0  0  0
 19 22  1  0  0  0
 20 21  2  0  0  0
 21 25  1  0  0  0
 22 24  2  0  0  0
 22 25  1  0  0  0
 23 25  1  0  0  0
 23 26  1  0  0  0
 23 27  2  0  0  0
  1  3  1  0  0  0
  1  5  1  0  0  0
  2  4  1  0  0  0
  2  5  1  0  0  0
  3  6  1  0  0  0
  4  6  1  0  0  0
 16 17  1  0  0  0
 16 15  1  0  0  0
 17 26  1  0  0  0
 15  6  1  0  0  0
 24 26  1  0  0  0
  6  7  1  0  0  0
M  CHG 1   6   1
M  END
> <minimizedAffinity>
-9.50278

> <CNNscore>
0.6059164405

> <CNNaffinity>
6.6365003586

> <CNN_VS>
4.0211648941

> <CNNaffinity_variance>
0.0102721695

$$$$



 27 30  0  0  0  0  0  0  0  0999 V2000
   11.3669    0.2011   61.8297 C   0  0  0  0  0  0  0  0  0  0  0  0
   10.9720    0.8679   59.4956 C   0  0  0  0  0  0  0  0  0  0  0  0
   12.7763   -0.2720   61.4945 C   0  0  0  0  0  0  0  0  0  0  0  0
   12.3770    0.4117   59.1074 C   0  0  0  0  0  0  0  0  0  0  0  0
   10.5140    0.0810   60.6451 N   0  0  0  0  0  0  0  0  0  0  0  0
   13.2900    0.5258   60.3117 N   0  0  0  0  0  0  0  0  0  0  0  0
   13.3055    1.5208   60.5939 H   0  0  0  0  0  0  0  0  0  0  0  0
    8.7162   -3.0854   61.2211 C   0  0  0  0  0  0  0  0  0  0  0  0
    9.6051   -2.0244   61.3935 C   0  0  0  0  0  0  0  0  0  0  0  0
    7.8500   -3.0991   60.1278 C   0  0  0  0  0  0  0  0  0  0  0  0
    8.7615   -0.9905   59.3794 C   0  0  0  0  0  0  0  0  0  0  0  0
    9.6278   -0.9770   60.4726 C   0  0  0  0  0  0  0  0  0  0  0  0
    7.8727   -2.0516   59.2070 C   0  0  0  0  0  0  0  0  0  0  0  0
    6.8030   -2.0688   57.8591 Cl  0  0  0  0  0  0  0  0  0  0  0  0
   14.7089    0.1660   59.9713 C   0  0  0  0  0  0  0  0  0  0  0  0
   14.8085   -0.1018   58.4748 C   0  0  0  0  0  0  0  0  0  0  0  0
   15.7563    0.8683   57.7746 C   0  0  0  0  0  0  0  0  0  0  0  0
   20.9959   -1.8332   57.8871 C   0  0  0  0  0  0  0  0  0  0  0  0
   19.8521   -1.7275   58.5831 C   0  0  0  0  0  0  0  0  0  0  0  0
   21.2071   -1.1066   56.6490 C   0  0  0  0  0  0  0  0  0  0  0  0
   20.2431   -0.3040   56.1743 C   0  0  0  0  0  0  0  0  0  0  0  0
   18.8039   -0.8361   58.0388 C   0  0  0  0  0  0  0  0  0  0  0  0
   17.9565    0.5682   56.5811 C   0  0  0  0  0  0  0  0  0  0  0  0
   17.6338   -0.5843   58.5368 N   0  0  0  0  0  0  0  0  0  0  0  0
   19.0740   -0.1874   56.8721 N   0  0  0  0  0  0  0  0  0  0  0  0
   17.0754    0.2966   57.6421 N   0  0  0  0  0  0  0  0  0  0  0  0
   17.7666    1.3057   55.6248 O   0  0  0  0  0  0  0  0  0  0  0  0
  8  9  2  0  0  0
  8 10  1  0  0  0
  9 12  1  0  0  0
 10 13  2  0  0  0
 11 12  2  0  0  0
 11 13  1  0  0  0
 12  5  1  0  0  0
 13 14  1  0  0  0
 18 19  2  0  0  0
 18 20  1  0  0  0
 19 22  1  0  0  0
 20 21  2  0  0  0
 21 25  1  0  0  0
 22 24  2  0  0  0
 22 25  1  0  0  0
 23 25  1  0  0  0
 23 26  1  0  0  0
 23 27  2  0  0  0
  1  3  1  0  0  0
  1  5  1  0  0  0
  2  4  1  0  0  0
  2  5  1  0  0  0
  3  6  1  0  0  0
  4  6  1  0  0  0
 16 17  1  0  0  0
 16 15  1  0  0  0
 17 26  1  0  0  0
 15  6  1  0  0  0
 24 26  1  0  0  0
  6  7  1  0  0  0
M  CHG 1   6   1
M  END
> <minimizedAffinity>
-9.87707

> <CNNscore>
0.5893852115

> <CNNaffinity>
6.5907378197

> <CNN_VS>
3.8844833374

> <CNNaffinity_variance>
0.0255596377

$$$$



 27 30  0  0  0  0  0  0  0  0999 V2000
   12.5331   -0.0142   62.3680 C   0  0  0  0  0  0  0  0  0  0  0  0
   10.8500    1.3725   61.2310 C   0  0  0  0  0  0  0  0  0  0  0  0
   13.1638   -0.4048   61.0367 C   0  0  0  0  0  0  0  0  0  0  0  0
   11.4462    1.0150   59.8711 C   0  0  0  0  0  0  0  0  0  0  0  0
   11.1115    0.2776   62.1708 N   0  0  0  0  0  0  0  0  0  0  0  0
   12.9212    0.7091   60.0369 N   0  0  0  0  0  0  0  0  0  0  0  0
   13.3732    1.5618   60.4091 H   0  0  0  0  0  0  0  0  0  0  0  0
    8.7240   -2.5145   61.8638 C   0  0  0  0  0  0  0  0  0  0  0  0
    9.7233   -1.5942   61.5477 C   0  0  0  0  0  0  0  0  0  0  0  0
    8.1157   -2.4800   63.1187 C   0  0  0  0  0  0  0  0  0  0  0  0
    9.5065   -0.6052   63.7413 C   0  0  0  0  0  0  0  0  0  0  0  0
   10.1146   -0.6396   62.4864 C   0  0  0  0  0  0  0  0  0  0  0  0
    8.5070   -1.5253   64.0574 C   0  0  0  0  0  0  0  0  0  0  0  0
    7.7569   -1.4843   65.6056 Cl  0  0  0  0  0  0  0  0  0  0  0  0
   13.5836    0.4273   58.7177 C   0  0  0  0  0  0  0  0  0  0  0  0
   15.0659    0.7631   58.8240 C   0  0  0  0  0  0  0  0  0  0  0  0
   15.7183    0.9442   57.4560 C   0  0  0  0  0  0  0  0  0  0  0  0
   20.9150   -1.7854   58.0108 C   0  0  0  0  0  0  0  0  0  0  0  0
   19.7272   -1.6509   58.6230 C   0  0  0  0  0  0  0  0  0  0  0  0
   21.2166   -1.0990   56.7685 C   0  0  0  0  0  0  0  0  0  0  0  0
   20.2941   -0.3056   56.2044 C   0  0  0  0  0  0  0  0  0  0  0  0
   18.7262   -0.7703   57.9810 C   0  0  0  0  0  0  0  0  0  0  0  0
   17.9924    0.5933   56.4262 C   0  0  0  0  0  0  0  0  0  0  0  0
   17.5269   -0.4958   58.3895 N   0  0  0  0  0  0  0  0  0  0  0  0
   19.0810   -0.1599   56.8163 N   0  0  0  0  0  0  0  0  0  0  0  0
   17.0385    0.3603   57.4320 N   0  0  0  0  0  0  0  0  0  0  0  0
   17.8747    1.3018   55.4370 O   0  0  0  0  0  0  0  0  0  0  0  0
  8  9  2  0  0  0
  8 10  1  0  0  0
  9 12  1  0  0  0
 10 13  2  0  0  0
 11 12  2  0  0  0
 11 13  1  0  0  0
 12  5  1  0  0  0
 13 14  1  0  0  0
 18 19  2  0  0  0
 18 20  1  0  0  0
 19 22  1  0  0  0
 20 21  2  0  0  0
 21 25  1  0  0  0
 22 24  2  0  0  0
 22 25  1  0  0  0
 23 25  1  0  0  0
 23 26  1  0  0  0
 23 27  2  0  0  0
  1  3  1  0  0  0
  1  5  1  0  0  0
  2  4  1  0  0  0
  2  5  1  0  0  0
  3  6  1  0  0  0
  4  6  1  0  0  0
 16 17  1  0  0  0
 16 15  1  0  0  0
 17 26  1  0  0  0
 15  6  1  0  0  0
 24 26  1  0  0  0
  6  7  1  0  0  0
M  CHG 1   6   1
M  END
> <minimizedAffinity>
-9.80616

> <CNNscore>
0.5634279251

> <CNNaffinity>
6.5128469467

> <CNN_VS>
3.6695199013

> <CNNaffinity_variance>
0.0325647220

$$$$



 27 30  0  0  0  0  0  0  0  0999 V2000
   11.6969    0.8821   63.9519 C   0  0  0  0  0  0  0  0  0  0  0  0
    9.9711    1.5615   62.3368 C   0  0  0  0  0  0  0  0  0  0  0  0
   12.3824    0.0089   62.9077 C   0  0  0  0  0  0  0  0  0  0  0  0
   10.6210    0.7041   61.2527 C   0  0  0  0  0  0  0  0  0  0  0  0
   10.2672    0.9784   63.6494 N   0  0  0  0  0  0  0  0  0  0  0  0
   12.1056    0.5851   61.5327 N   0  0  0  0  0  0  0  0  0  0  0  0
   12.5008    1.5409   61.5133 H   0  0  0  0  0  0  0  0  0  0  0  0
    8.7319   -1.7236   65.6323 C   0  0  0  0  0  0  0  0  0  0  0  0
    9.6876   -0.9623   64.9596 C   0  0  0  0  0  0  0  0  0  0  0  0
    7.4022   -1.3033   65.6650 C   0  0  0  0  0  0  0  0  0  0  0  0
    7.9841    0.6398   64.3525 C   0  0  0  0  0  0  0  0  0  0  0  0
    9.3138    0.2194   64.3197 C   0  0  0  0  0  0  0  0  0  0  0  0
    7.0283   -0.1216   65.0251 C   0  0  0  0  0  0  0  0  0  0  0  0
    5.3879    0.3967   65.0669 Cl  0  0  0  0  0  0  0  0  0  0  0  0
   12.8164   -0.1826   60.4538 C   0  0  0  0  0  0  0  0  0  0  0  0
   14.0774   -0.8079   61.0371 C   0  0  0  0  0  0  0  0  0  0  0  0
   15.2191    0.1976   61.1599 C   0  0  0  0  0  0  0  0  0  0  0  0
   18.8561   -0.2758   56.5434 C   0  0  0  0  0  0  0  0  0  0  0  0
   18.5987   -0.8281   57.7402 C   0  0  0  0  0  0  0  0  0  0  0  0
   18.0774    0.8364   56.0315 C   0  0  0  0  0  0  0  0  0  0  0  0
   17.0702    1.3371   56.7620 C   0  0  0  0  0  0  0  0  0  0  0  0
   17.4825   -0.2582   58.5271 C   0  0  0  0  0  0  0  0  0  0  0  0
   15.8224    1.1285   58.8961 C   0  0  0  0  0  0  0  0  0  0  0  0
   17.0598   -0.6286   59.6954 N   0  0  0  0  0  0  0  0  0  0  0  0
   16.7969    0.7845   57.9816 N   0  0  0  0  0  0  0  0  0  0  0  0
   16.0149    0.2251   59.9557 N   0  0  0  0  0  0  0  0  0  0  0  0
   14.9816    2.0120   58.8134 O   0  0  0  0  0  0  0  0  0  0  0  0
  8  9  2  0  0  0
  8 10  1  0  0  0
  9 12  1  0  0  0
 10 13  2  0  0  0
 11 12  2  0  0  0
 11 13  1  0  0  0
 12  5  1  0  0  0
 13 14  1  0  0  0
 18 19  2  0  0  0
 18 20  1  0  0  0
 19 22  1  0  0  0
 20 21  2  0  0  0
 21 25  1  0  0  0
 22 24  2  0  0  0
 22 25  1  0  0  0
 23 25  1  0  0  0
 23 26  1  0  0  0
 23 27  2  0  0  0
  1  3  1  0  0  0
  1  5  1  0  0  0
  2  4  1  0  0  0
  2  5  1  0  0  0
  3  6  1  0  0  0
  4  6  1  0  0  0
 16 17  1  0  0  0
 16 15  1  0  0  0
 17 26  1  0  0  0
 15  6  1  0  0  0
 24 26  1  0  0  0
  6  7  1  0  0  0
M  CHG 1   6   1
M  END
> <minimizedAffinity>
-8.52502

> <CNNscore>
0.5100210905

> <CNNaffinity>
6.7028360367

> <CNN_VS>
3.4185876846

> <CNNaffinity_variance>
0.0371228382

$$$$



 27 30  0  0  0  0  0  0  0  0999 V2000
   11.4809    0.5213   61.8427 C   0  0  0  0  0  0  0  0  0  0  0  0
   11.8236    1.1414   59.4876 C   0  0  0  0  0  0  0  0  0  0  0  0
   12.8014   -0.2390   61.8727 C   0  0  0  0  0  0  0  0  0  0  0  0
   13.1566    0.3961   59.4654 C   0  0  0  0  0  0  0  0  0  0  0  0
   10.9431    0.5174   60.4804 N   0  0  0  0  0  0  0  0  0  0  0  0
   13.7451    0.3830   60.8619 N   0  0  0  0  0  0  0  0  0  0  0  0
   13.8938    1.3672   61.1433 H   0  0  0  0  0  0  0  0  0  0  0  0
    8.1903   -0.9597   58.5233 C   0  0  0  0  0  0  0  0  0  0  0  0
    9.2061   -0.0903   58.9208 C   0  0  0  0  0  0  0  0  0  0  0  0
    7.8983   -2.0881   59.2896 C   0  0  0  0  0  0  0  0  0  0  0  0
    9.6381   -1.4779   60.8509 C   0  0  0  0  0  0  0  0  0  0  0  0
    9.9300   -0.3494   60.0846 C   0  0  0  0  0  0  0  0  0  0  0  0
    8.6223   -2.3472   60.4535 C   0  0  0  0  0  0  0  0  0  0  0  0
    8.2621   -3.7401   61.3977 Cl  0  0  0  0  0  0  0  0  0  0  0  0
   15.0992   -0.2684   60.8899 C   0  0  0  0  0  0  0  0  0  0  0  0
   16.0700    0.5673   60.0650 C   0  0  0  0  0  0  0  0  0  0  0  0
   16.9027   -0.2854   59.1115 C   0  0  0  0  0  0  0  0  0  0  0  0
   14.1546   -0.8748   53.9284 C   0  0  0  0  0  0  0  0  0  0  0  0
   14.2120   -1.4169   55.1558 C   0  0  0  0  0  0  0  0  0  0  0  0
   14.9801    0.2583   53.5540 C   0  0  0  0  0  0  0  0  0  0  0  0
   15.8280    0.7893   54.4471 C   0  0  0  0  0  0  0  0  0  0  0  0
   15.1551   -0.8133   56.1233 C   0  0  0  0  0  0  0  0  0  0  0  0
   16.6837    0.6221   56.7698 C   0  0  0  0  0  0  0  0  0  0  0  0
   15.3749   -1.1687   57.3504 N   0  0  0  0  0  0  0  0  0  0  0  0
   15.8965    0.2479   55.6999 N   0  0  0  0  0  0  0  0  0  0  0  0
   16.3323   -0.2841   57.7853 N   0  0  0  0  0  0  0  0  0  0  0  0
   17.5001    1.5300   56.8308 O   0  0  0  0  0  0  0  0  0  0  0  0
  8  9  2  0  0  0
  8 10  1  0  0  0
  9 12  1  0  0  0
 10 13  2  0  0  0
 11 12  2  0  0  0
 11 13  1  0  0  0
 12  5  1  0  0  0
 13 14  1  0  0  0
 18 19  2  0  0  0
 18 20  1  0  0  0
 19 22  1  0  0  0
 20 21  2  0  0  0
 21 25  1  0  0  0
 22 24  2  0  0  0
 22 25  1  0  0  0
 23 25  1  0  0  0
 23 26  1  0  0  0
 23 27  2  0  0  0
  1  3  1  0  0  0
  1  5  1  0  0  0
  2  4  1  0  0  0
  2  5  1  0  0  0
  3  6  1  0  0  0
  4  6  1  0  0  0
 16 17  1  0  0  0
 16 15  1  0  0  0
 17 26  1  0  0  0
 15  6  1  0  0  0
 24 26  1  0  0  0
  6  7  1  0  0  0
M  CHG 1   6   1
M  END
> <minimizedAffinity>
-8.57978

> <CNNscore>
0.4699710011

> <CNNaffinity>
6.6445856094

> <CNN_VS>
3.1227624416

> <CNNaffinity_variance>
0.1858926117

$$$$



 27 30  0  0  0  0  0  0  0  0999 V2000
   14.6064    1.6260   58.6867 C   0  0  0  0  0  0  0  0  0  0  0  0
   16.6005    0.2551   59.1259 C   0  0  0  0  0  0  0  0  0  0  0  0
   13.7583    0.7509   59.6019 C   0  0  0  0  0  0  0  0  0  0  0  0
   15.7962   -0.6511   60.0557 C   0  0  0  0  0  0  0  0  0  0  0  0
   15.6997    0.8313   58.1225 N   0  0  0  0  0  0  0  0  0  0  0  0
   14.6551    0.1410   60.6616 N   0  0  0  0  0  0  0  0  0  0  0  0
   15.0718    0.9203   61.1992 H   0  0  0  0  0  0  0  0  0  0  0  0
   16.4204    0.3389   54.5408 C   0  0  0  0  0  0  0  0  0  0  0  0
   16.4664    0.8560   55.8354 C   0  0  0  0  0  0  0  0  0  0  0  0
   15.5610   -0.7186   54.2423 C   0  0  0  0  0  0  0  0  0  0  0  0
   14.7938   -0.7419   56.5331 C   0  0  0  0  0  0  0  0  0  0  0  0
   15.6531    0.3157   56.8316 C   0  0  0  0  0  0  0  0  0  0  0  0
   14.7477   -1.2589   55.2384 C   0  0  0  0  0  0  0  0  0  0  0  0
   13.6886   -2.5641   54.8694 Cl  0  0  0  0  0  0  0  0  0  0  0  0
   13.8723   -0.6766   61.6503 C   0  0  0  0  0  0  0  0  0  0  0  0
   12.3911   -0.3524   61.5012 C   0  0  0  0  0  0  0  0  0  0  0  0
   11.8215    0.3359   62.7388 C   0  0  0  0  0  0  0  0  0  0  0  0
    6.8091   -2.5945   63.7647 C   0  0  0  0  0  0  0  0  0  0  0  0
    7.8342   -2.5352   62.8990 C   0  0  0  0  0  0  0  0  0  0  0  0
    6.7261   -1.7108   64.9126 C   0  0  0  0  0  0  0  0  0  0  0  0
    7.6918   -0.8054   65.1281 C   0  0  0  0  0  0  0  0  0  0  0  0
    8.8870   -1.5282   63.1584 C   0  0  0  0  0  0  0  0  0  0  0  0
    9.8356    0.1057   64.2744 C   0  0  0  0  0  0  0  0  0  0  0  0
    9.9563   -1.2953   62.4634 N   0  0  0  0  0  0  0  0  0  0  0  0
    8.7410   -0.7344   64.2554 N   0  0  0  0  0  0  0  0  0  0  0  0
   10.5751   -0.2719   63.1402 N   0  0  0  0  0  0  0  0  0  0  0  0
   10.1085    0.9789   65.0853 O   0  0  0  0  0  0  0  0  0  0  0  0
  8  9  2  0  0  0
  8 10  1  0  0  0
  9 12  1  0  0  0
 10 13  2  0  0  0
 11 12  2  0  0  0
 11 13  1  0  0  0
 12  5  1  0  0  0
 13 14  1  0  0  0
 18 19  2  0  0  0
 18 20  1  0  0  0
 19 22  1  0  0  0
 20 21  2  0  0  0
 21 25  1  0  0  0
 22 24  2  0  0  0
 22 25  1  0  0  0
 23 25  1  0  0  0
 23 26  1  0  0  0
 23 27  2  0  0  0
  1  3  1  0  0  0
  1  5  1  0  0  0
  2  4  1  0  0  0
  2  5  1  0  0  0
  3  6  1  0  0  0
  4  6  1  0  0  0
 16 17  1  0  0  0
 16 15  1  0  0  0
 17 26  1  0  0  0
 15  6  1  0  0  0
 24 26  1  0  0  0
  6  7  1  0  0  0
M  CHG 1   6   1
M  END
> <minimizedAffinity>
-8.90116

> <CNNscore>
0.4533299506

> <CNNaffinity>
6.5581941605

> <CNN_VS>
2.9730257988

> <CNNaffinity_variance>
0.1414037943

$$$$



 27 30  0  0  0  0  0  0  0  0999 V2000
   11.4029    0.7041   63.5687 C   0  0  0  0  0  0  0  0  0  0  0  0
    9.7149    1.7126   62.0914 C   0  0  0  0  0  0  0  0  0  0  0  0
   12.0716    0.0075   62.3896 C   0  0  0  0  0  0  0  0  0  0  0  0
   10.3490    1.0398   60.8757 C   0  0  0  0  0  0  0  0  0  0  0  0
    9.9798    0.8979   63.2816 N   0  0  0  0  0  0  0  0  0  0  0  0
   11.8265    0.8260   61.1369 N   0  0  0  0  0  0  0  0  0  0  0  0
   12.2509    1.7570   61.2885 H   0  0  0  0  0  0  0  0  0  0  0  0
    7.0808   -0.2710   65.2360 C   0  0  0  0  0  0  0  0  0  0  0  0
    8.0669    0.5655   64.7132 C   0  0  0  0  0  0  0  0  0  0  0  0
    7.0247   -1.6099   64.8486 C   0  0  0  0  0  0  0  0  0  0  0  0
    8.9408   -1.2756   63.4155 C   0  0  0  0  0  0  0  0  0  0  0  0
    8.9969    0.0633   63.8029 C   0  0  0  0  0  0  0  0  0  0  0  0
    7.9547   -2.1122   63.9384 C   0  0  0  0  0  0  0  0  0  0  0  0
    7.8841   -3.7638   63.4603 Cl  0  0  0  0  0  0  0  0  0  0  0  0
   12.5242    0.2385   59.9424 C   0  0  0  0  0  0  0  0  0  0  0  0
   13.9012   -0.2577   60.3655 C   0  0  0  0  0  0  0  0  0  0  0  0
   15.0281    0.5740   59.7588 C   0  0  0  0  0  0  0  0  0  0  0  0
   15.0331   -1.0355   54.0866 C   0  0  0  0  0  0  0  0  0  0  0  0
   14.3699   -1.2386   55.2367 C   0  0  0  0  0  0  0  0  0  0  0  0
   16.1756   -0.1444   54.0103 C   0  0  0  0  0  0  0  0  0  0  0  0
   16.5923    0.5010   55.1097 C   0  0  0  0  0  0  0  0  0  0  0  0
   14.8487   -0.5152   56.4356 C   0  0  0  0  0  0  0  0  0  0  0  0
   16.1708    0.8527   57.5291 C   0  0  0  0  0  0  0  0  0  0  0  0
   14.3669   -0.5583   57.6383 N   0  0  0  0  0  0  0  0  0  0  0  0
   15.9265    0.3040   56.2867 N   0  0  0  0  0  0  0  0  0  0  0  0
   15.1774    0.2925   58.3507 N   0  0  0  0  0  0  0  0  0  0  0  0
   17.0455    1.6438   57.8510 O   0  0  0  0  0  0  0  0  0  0  0  0
  8  9  2  0  0  0
  8 10  1  0  0  0
  9 12  1  0  0  0
 10 13  2  0  0  0
 11 12  2  0  0  0
 11 13  1  0  0  0
 12  5  1  0  0  0
 13 14  1  0  0  0
 18 19  2  0  0  0
 18 20  1  0  0  0
 19 22  1  0  0  0
 20 21  2  0  0  0
 21 25  1  0  0  0
 22 24  2  0  0  0
 22 25  1  0  0  0
 23 25  1  0  0  0
 23 26  1  0  0  0
 23 27  2  0  0  0
  1  3  1  0  0  0
  1  5  1  0  0  0
  2  4  1  0  0  0
  2  5  1  0  0  0
  3  6  1  0  0  0
  4  6  1  0  0  0
 16 17  1  0  0  0
 16 15  1  0  0  0
 17 26  1  0  0  0
 15  6  1  0  0  0
 24 26  1  0  0  0
  6  7  1  0  0  0
M  CHG 1   6   1
M  END
> <minimizedAffinity>
-8.60393

> <CNNscore>
0.4320529997

> <CNNaffinity>
6.5516281128

> <CNN_VS>
2.8306505680

> <CNNaffinity_variance>
0.0716363639

$$$$



 28 31  0  0  0  0  0  0  0  0999 V2000
   15.3499    0.1518   58.7289 C   0  0  0  0  0  0  0  0  0  0  0  0
   15.9791   -0.2509   57.5578 C   0  0  0  0  0  0  0  0  0  0  0  0
   15.2399   -0.4650   56.3864 C   0  0  0  0  0  0  0  0  0  0  0  0
   13.8584   -0.2478   56.4521 C   0  0  0  0  0  0  0  0  0  0  0  0
   13.9825    0.3354   58.6922 C   0  0  0  0  0  0  0  0  0  0  0  0
   15.9540   -0.8955   55.1315 C   0  0  0  0  0  0  0  0  0  0  0  0
   12.9754   -0.3813   55.2416 C   0  0  0  0  0  0  0  0  0  0  0  0
   16.2872    0.2465   54.1695 C   0  0  0  0  0  0  0  0  0  0  0  0
   12.8204    0.9331   54.4791 C   0  0  0  0  0  0  0  0  0  0  0  0
   15.1201    0.7616   53.3177 C   0  0  0  0  0  0  0  0  0  0  0  0
   14.1190    1.6376   54.0731 C   0  0  0  0  0  0  0  0  0  0  0  0
   13.2277    0.1507   57.5884 N   0  0  0  0  0  0  0  0  0  0  0  0
   18.2313    0.1015   56.6159 C   0  0  0  0  0  0  0  0  0  0  0  0
   17.9881   -1.1647   58.6591 C   0  0  0  0  0  0  0  0  0  0  0  0
   19.6133   -0.0805   56.6677 C   0  0  0  0  0  0  0  0  0  0  0  0
   19.3700   -1.3468   58.7108 C   0  0  0  0  0  0  0  0  0  0  0  0
   17.4187   -0.4406   57.6117 C   0  0  0  0  0  0  0  0  0  0  0  0
   20.1826   -0.8046   57.7151 C   0  0  0  0  0  0  0  0  0  0  0  0
   21.5098   -0.9793   57.7647 F   0  0  0  0  0  0  0  0  0  0  0  0
   12.1806    1.6033   59.8752 C   0  0  0  0  0  0  0  0  0  0  0  0
   13.5442   -0.0300   61.1087 C   0  0  0  0  0  0  0  0  0  0  0  0
   10.9251    0.7638   60.0789 C   0  0  0  0  0  0  0  0  0  0  0  0
   12.3159   -0.9069   61.3435 C   0  0  0  0  0  0  0  0  0  0  0  0
   13.3580    0.7323   59.8699 N   0  0  0  0  0  0  0  0  0  0  0  0
   11.0756   -0.0360   61.3583 N   0  0  0  0  0  0  0  0  0  0  0  0
   11.1824    0.6398   62.1341 H   0  0  0  0  0  0  0  0  0  0  0  0
    9.6913   -0.9646   63.1658 C   0  0  0  0  0  0  0  0  0  0  0  0
    9.8390   -0.8327   61.6658 C   0  0  0  0  0  0  0  0  0  0  0  0
 13 15  2  0  0  0
 13 17  1  0  0  0
 14 16  1  0  0  0
 14 17  2  0  0  0
 15 18  1  0  0  0
 16 18  2  0  0  0
  1  2  2  0  0  0
  1  5  1  0  0  0
 17  2  1  0  0  0
  2  3  1  0  0  0
  3  4  2  0  0  0
  3  6  1  0  0  0
 18 19  1  0  0  0
  4  7  1  0  0  0
  4 12  1  0  0  0
  5 12  2  0  0  0
  5 24  1  0  0  0
  6  8  1  0  0  0
  7  9  1  0  0  0
  8 10  1  0  0  0
  9 11  1  0  0  0
 10 11  1  0  0  0
 20 22  1  0  0  0
 20 24  1  0  0  0
 21 23  1  0  0  0
 21 24  1  0  0  0
 22 25  1  0  0  0
 23 25  1  0  0  0
 27 28  1  0  0  0
 28 25  1  0  0  0
 25 26  1  0  0  0
M  CHG 1  25   1
M  END
> <minimizedAffinity>
-9.02529

> <CNNscore>
0.5752924085

> <CNNaffinity>
7.2624602318

> <CNN_VS>
4.1780381203

> <CNNaffinity_variance>
0.1047631055

$$$$



 28 31  0  0  0  0  0  0  0  0999 V2000
   13.0201   -0.7465   56.5083 C   0  0  0  0  0  0  0  0  0  0  0  0
   13.8653   -1.2692   55.5378 C   0  0  0  0  0  0  0  0  0  0  0  0
   14.8983   -0.4925   54.9959 C   0  0  0  0  0  0  0  0  0  0  0  0
   15.0393    0.8135   55.4802 C   0  0  0  0  0  0  0  0  0  0  0  0
   13.2389    0.5535   56.9170 C   0  0  0  0  0  0  0  0  0  0  0  0
   15.8012   -1.0919   53.9492 C   0  0  0  0  0  0  0  0  0  0  0  0
   16.1527    1.7147   55.0207 C   0  0  0  0  0  0  0  0  0  0  0  0
   17.1193   -1.6467   54.4929 C   0  0  0  0  0  0  0  0  0  0  0  0
   17.4003    1.6003   55.8945 C   0  0  0  0  0  0  0  0  0  0  0  0
   18.1983   -0.6047   54.8139 C   0  0  0  0  0  0  0  0  0  0  0  0
   17.9558    0.1871   56.1000 C   0  0  0  0  0  0  0  0  0  0  0  0
   14.2241    1.3390   56.4325 N   0  0  0  0  0  0  0  0  0  0  0  0
   12.9548   -2.8922   53.9190 C   0  0  0  0  0  0  0  0  0  0  0  0
   14.0569   -3.6998   55.9115 C   0  0  0  0  0  0  0  0  0  0  0  0
   12.7218   -4.2068   53.5151 C   0  0  0  0  0  0  0  0  0  0  0  0
   13.8238   -5.0144   55.5077 C   0  0  0  0  0  0  0  0  0  0  0  0
   13.6225   -2.6388   55.1172 C   0  0  0  0  0  0  0  0  0  0  0  0
   13.1563   -5.2679   54.3094 C   0  0  0  0  0  0  0  0  0  0  0  0
   12.9324   -6.5304   53.9214 F   0  0  0  0  0  0  0  0  0  0  0  0
   11.0915    0.4604   58.1953 C   0  0  0  0  0  0  0  0  0  0  0  0
   12.8963    1.9581   58.9356 C   0  0  0  0  0  0  0  0  0  0  0  0
   11.2135   -0.3739   59.4649 C   0  0  0  0  0  0  0  0  0  0  0  0
   13.0571    1.1577   60.2263 C   0  0  0  0  0  0  0  0  0  0  0  0
   12.3850    1.0729   57.8842 N   0  0  0  0  0  0  0  0  0  0  0  0
   11.7335    0.5106   60.5813 N   0  0  0  0  0  0  0  0  0  0  0  0
   11.0455    1.2707   60.7188 H   0  0  0  0  0  0  0  0  0  0  0  0
   13.2553   -0.5160   62.2171 C   0  0  0  0  0  0  0  0  0  0  0  0
   11.8069   -0.2277   61.8883 C   0  0  0  0  0  0  0  0  0  0  0  0
 13 15  2  0  0  0
 13 17  1  0  0  0
 14 16  1  0  0  0
 14 17  2  0  0  0
 15 18  1  0  0  0
 16 18  2  0  0  0
  1  2  2  0  0  0
  1  5  1  0  0  0
 17  2  1  0  0  0
  2  3  1  0  0  0
  3  4  2  0  0  0
  3  6  1  0  0  0
 18 19  1  0  0  0
  4  7  1  0  0  0
  4 12  1  0  0  0
  5 12  2  0  0  0
  5 24  1  0  0  0
  6  8  1  0  0  0
  7  9  1  0  0  0
  8 10  1  0  0  0
  9 11  1  0  0  0
 10 11  1  0  0  0
 20 22  1  0  0  0
 20 24  1  0  0  0
 21 23  1  0  0  0
 21 24  1  0  0  0
 22 25  1  0  0  0
 23 25  1  0  0  0
 27 28  1  0  0  0
 28 25  1  0  0  0
 25 26  1  0  0  0
M  CHG 1  25   1
M  END
> <minimizedAffinity>
3.16878

> <CNNscore>
0.4426653981

> <CNNaffinity>
6.6295561790

> <CNN_VS>
2.9346752167

> <CNNaffinity_variance>
1.0070148706

$$$$



 28 31  0  0  0  0  0  0  0  0999 V2000
   14.2602    0.4923   58.7127 C   0  0  0  0  0  0  0  0  0  0  0  0
   14.8886   -0.2457   57.7178 C   0  0  0  0  0  0  0  0  0  0  0  0
   14.1371   -0.9358   56.7569 C   0  0  0  0  0  0  0  0  0  0  0  0
   12.7431   -0.8385   56.8431 C   0  0  0  0  0  0  0  0  0  0  0  0
   12.8803    0.5227   58.7144 C   0  0  0  0  0  0  0  0  0  0  0  0
   14.8501   -1.7220   55.6875 C   0  0  0  0  0  0  0  0  0  0  0  0
   11.8382   -1.4813   55.8278 C   0  0  0  0  0  0  0  0  0  0  0  0
   15.0174   -0.9787   54.3608 C   0  0  0  0  0  0  0  0  0  0  0  0
   11.5084   -0.5512   54.6619 C   0  0  0  0  0  0  0  0  0  0  0  0
   13.7698   -0.9163   53.4705 C   0  0  0  0  0  0  0  0  0  0  0  0
   12.7037    0.0765   53.9374 C   0  0  0  0  0  0  0  0  0  0  0  0
   12.1123   -0.1171   57.8071 N   0  0  0  0  0  0  0  0  0  0  0  0
   17.0184   -1.1474   58.5750 C   0  0  0  0  0  0  0  0  0  0  0  0
   17.0592    0.5874   56.8941 C   0  0  0  0  0  0  0  0  0  0  0  0
   18.4130   -1.1698   58.5858 C   0  0  0  0  0  0  0  0  0  0  0  0
   18.4538    0.5652   56.9049 C   0  0  0  0  0  0  0  0  0  0  0  0
   16.3415   -0.2688   57.7290 C   0  0  0  0  0  0  0  0  0  0  0  0
   19.1307   -0.3135   57.7508 C   0  0  0  0  0  0  0  0  0  0  0  0
   20.4701   -0.3350   57.7612 F   0  0  0  0  0  0  0  0  0  0  0  0
   10.9542    1.8977   59.5228 C   0  0  0  0  0  0  0  0  0  0  0  0
   12.6272    1.0683   61.1234 C   0  0  0  0  0  0  0  0  0  0  0  0
    9.8657    1.0436   60.1619 C   0  0  0  0  0  0  0  0  0  0  0  0
   11.5732    0.1959   61.8022 C   0  0  0  0  0  0  0  0  0  0  0  0
   12.2574    1.2582   59.7171 N   0  0  0  0  0  0  0  0  0  0  0  0
   10.2086    0.8305   61.6235 N   0  0  0  0  0  0  0  0  0  0  0  0
   10.2404    1.7620   62.0721 H   0  0  0  0  0  0  0  0  0  0  0  0
    9.5977   -1.3694   62.5361 C   0  0  0  0  0  0  0  0  0  0  0  0
    9.1367    0.0583   62.3400 C   0  0  0  0  0  0  0  0  0  0  0  0
 13 15  2  0  0  0
 13 17  1  0  0  0
 14 16  1  0  0  0
 14 17  2  0  0  0
 15 18  1  0  0  0
 16 18  2  0  0  0
  1  2  2  0  0  0
  1  5  1  0  0  0
 17  2  1  0  0  0
  2  3  1  0  0  0
  3  4  2  0  0  0
  3  6  1  0  0  0
 18 19  1  0  0  0
  4  7  1  0  0  0
  4 12  1  0  0  0
  5 12  2  0  0  0
  5 24  1  0  0  0
  6  8  1  0  0  0
  7  9  1  0  0  0
  8 10  1  0  0  0
  9 11  1  0  0  0
 10 11  1  0  0  0
 20 22  1  0  0  0
 20 24  1  0  0  0
 21 23  1  0  0  0
 21 24  1  0  0  0
 22 25  1  0  0  0
 23 25  1  0  0  0
 27 28  1  0  0  0
 28 25  1  0  0  0
 25 26  1  0  0  0
M  CHG 1  25   1
M  END
> <minimizedAffinity>
-7.16790

> <CNNscore>
0.4051131606

> <CNNaffinity>
6.8151679039

> <CNN_VS>
2.7609143257

> <CNNaffinity_variance>
0.1766759902

$$$$



 28 31  0  0  0  0  0  0  0  0999 V2000
    9.5483   -1.4663   60.9820 C   0  0  0  0  0  0  0  0  0  0  0  0
    8.5012   -2.3780   61.0235 C   0  0  0  0  0  0  0  0  0  0  0  0
    8.0605   -2.9055   62.2449 C   0  0  0  0  0  0  0  0  0  0  0  0
    8.7124   -2.4677   63.4040 C   0  0  0  0  0  0  0  0  0  0  0  0
   10.1284   -1.1005   62.1798 C   0  0  0  0  0  0  0  0  0  0  0  0
    6.9181   -3.8878   62.2554 C   0  0  0  0  0  0  0  0  0  0  0  0
    8.2809   -2.9143   64.7742 C   0  0  0  0  0  0  0  0  0  0  0  0
    5.5518   -3.2664   62.5515 C   0  0  0  0  0  0  0  0  0  0  0  0
    7.2410   -1.9837   65.3954 C   0  0  0  0  0  0  0  0  0  0  0  0
    5.2735   -2.9408   64.0245 C   0  0  0  0  0  0  0  0  0  0  0  0
    5.9959   -1.6987   64.5492 C   0  0  0  0  0  0  0  0  0  0  0  0
    9.7353   -1.5728   63.3817 N   0  0  0  0  0  0  0  0  0  0  0  0
    6.9606   -3.7834   59.7062 C   0  0  0  0  0  0  0  0  0  0  0  0
    8.2645   -2.0860   58.5857 C   0  0  0  0  0  0  0  0  0  0  0  0
    6.3841   -4.1444   58.4885 C   0  0  0  0  0  0  0  0  0  0  0  0
    7.6881   -2.4470   57.3680 C   0  0  0  0  0  0  0  0  0  0  0  0
    7.9008   -2.7541   59.7548 C   0  0  0  0  0  0  0  0  0  0  0  0
    6.7479   -3.4762   57.3194 C   0  0  0  0  0  0  0  0  0  0  0  0
    6.1941   -3.8230   56.1499 F   0  0  0  0  0  0  0  0  0  0  0  0
   12.0715   -0.0900   60.9726 C   0  0  0  0  0  0  0  0  0  0  0  0
   11.1895    0.9897   62.9986 C   0  0  0  0  0  0  0  0  0  0  0  0
   11.6600    1.1005   60.1147 C   0  0  0  0  0  0  0  0  0  0  0  0
   10.7599    2.2088   62.1850 C   0  0  0  0  0  0  0  0  0  0  0  0
   11.1806   -0.1921   62.1304 N   0  0  0  0  0  0  0  0  0  0  0  0
   11.6647    2.3477   60.9772 N   0  0  0  0  0  0  0  0  0  0  0  0
   12.6293    2.4771   61.3275 H   0  0  0  0  0  0  0  0  0  0  0  0
   11.2174    4.7616   61.1130 C   0  0  0  0  0  0  0  0  0  0  0  0
   11.3420    3.5787   60.1778 C   0  0  0  0  0  0  0  0  0  0  0  0
 13 15  2  0  0  0
 13 17  1  0  0  0
 14 16  1  0  0  0
 14 17  2  0  0  0
 15 18  1  0  0  0
 16 18  2  0  0  0
  1  2  2  0  0  0
  1  5  1  0  0  0
 17  2  1  0  0  0
  2  3  1  0  0  0
  3  4  2  0  0  0
  3  6  1  0  0  0
 18 19  1  0  0  0
  4  7  1  0  0  0
  4 12  1  0  0  0
  5 12  2  0  0  0
  5 24  1  0  0  0
  6  8  1  0  0  0
  7  9  1  0  0  0
  8 10  1  0  0  0
  9 11  1  0  0  0
 10 11  1  0  0  0
 20 22  1  0  0  0
 20 24  1  0  0  0
 21 23  1  0  0  0
 21 24  1  0  0  0
 22 25  1  0  0  0
 23 25  1  0  0  0
 27 28  1  0  0  0
 28 25  1  0  0  0
 25 26  1  0  0  0
M  CHG 1  25   1
M  END
> <minimizedAffinity>
-7.03674

> <CNNscore>
0.3989042044

> <CNNaffinity>
6.5017609596

> <CNN_VS>
2.5935797691

> <CNNaffinity_variance>
0.3274489045

$$$$



 28 31  0  0  0  0  0  0  0  0999 V2000
    8.4625   -2.3865   62.4027 C   0  0  0  0  0  0  0  0  0  0  0  0
    9.2975   -1.5558   63.1390 C   0  0  0  0  0  0  0  0  0  0  0  0
   10.2515   -0.7526   62.4995 C   0  0  0  0  0  0  0  0  0  0  0  0
   10.3140   -0.8214   61.1025 C   0  0  0  0  0  0  0  0  0  0  0  0
    8.6049   -2.3857   61.0299 C   0  0  0  0  0  0  0  0  0  0  0  0
   11.1376    0.1418   63.3272 C   0  0  0  0  0  0  0  0  0  0  0  0
   11.2518    0.0441   60.3062 C   0  0  0  0  0  0  0  0  0  0  0  0
   10.6549    1.5899   63.4313 C   0  0  0  0  0  0  0  0  0  0  0  0
   10.6179    1.3703   59.8906 C   0  0  0  0  0  0  0  0  0  0  0  0
   10.9252    2.4717   62.2056 C   0  0  0  0  0  0  0  0  0  0  0  0
   10.0010    2.2079   61.0155 C   0  0  0  0  0  0  0  0  0  0  0  0
    9.5015   -1.6251   60.3666 N   0  0  0  0  0  0  0  0  0  0  0  0
    8.3683   -0.5845   65.2071 C   0  0  0  0  0  0  0  0  0  0  0  0
    9.7498   -2.5617   65.3452 C   0  0  0  0  0  0  0  0  0  0  0  0
    8.2135   -0.5959   66.5932 C   0  0  0  0  0  0  0  0  0  0  0  0
    9.5951   -2.5730   66.7314 C   0  0  0  0  0  0  0  0  0  0  0  0
    9.1364   -1.5676   64.5831 C   0  0  0  0  0  0  0  0  0  0  0  0
    8.8269   -1.5901   67.3554 C   0  0  0  0  0  0  0  0  0  0  0  0
    8.6782   -1.6008   68.6867 F   0  0  0  0  0  0  0  0  0  0  0  0
    6.4314   -2.8141   59.8696 C   0  0  0  0  0  0  0  0  0  0  0  0
    8.3204   -4.3550   59.5446 C   0  0  0  0  0  0  0  0  0  0  0  0
    6.4702   -2.3992   58.4036 C   0  0  0  0  0  0  0  0  0  0  0  0
    8.4000   -3.9763   58.0671 C   0  0  0  0  0  0  0  0  0  0  0  0
    7.7700   -3.2245   60.2992 N   0  0  0  0  0  0  0  0  0  0  0  0
    7.0280   -3.5482   57.5863 N   0  0  0  0  0  0  0  0  0  0  0  0
    6.3917   -4.3539   57.7121 H   0  0  0  0  0  0  0  0  0  0  0  0
    8.0783   -2.1933   55.8238 C   0  0  0  0  0  0  0  0  0  0  0  0
    7.0243   -3.2388   56.1157 C   0  0  0  0  0  0  0  0  0  0  0  0
 13 15  2  0  0  0
 13 17  1  0  0  0
 14 16  1  0  0  0
 14 17  2  0  0  0
 15 18  1  0  0  0
 16 18  2  0  0  0
  1  2  2  0  0  0
  1  5  1  0  0  0
 17  2  1  0  0  0
  2  3  1  0  0  0
  3  4  2  0  0  0
  3  6  1  0  0  0
 18 19  1  0  0  0
  4  7  1  0  0  0
  4 12  1  0  0  0
  5 12  2  0  0  0
  5 24  1  0  0  0
  6  8  1  0  0  0
  7  9  1  0  0  0
  8 10  1  0  0  0
  9 11  1  0  0  0
 10 11  1  0  0  0
 20 22  1  0  0  0
 20 24  1  0  0  0
 21 23  1  0  0  0
 21 24  1  0  0  0
 22 25  1  0  0  0
 23 25  1  0  0  0
 27 28  1  0  0  0
 28 25  1  0  0  0
 25 26  1  0  0  0
M  CHG 1  25   1
M  END
> <minimizedAffinity>
-3.67842

> <CNNscore>
0.3722546101

> <CNNaffinity>
6.4455194473

> <CNN_VS>
2.3993742466

> <CNNaffinity_variance>
0.4970357418

$$$$



 28 31  0  0  0  0  0  0  0  0999 V2000
    9.8750   -0.9723   61.0863 C   0  0  0  0  0  0  0  0  0  0  0  0
    8.8297   -1.8786   61.2100 C   0  0  0  0  0  0  0  0  0  0  0  0
    8.4772   -2.3966   62.4637 C   0  0  0  0  0  0  0  0  0  0  0  0
    9.2139   -1.9550   63.5693 C   0  0  0  0  0  0  0  0  0  0  0  0
   10.5427   -0.6020   62.2361 C   0  0  0  0  0  0  0  0  0  0  0  0
    7.3343   -3.3733   62.5639 C   0  0  0  0  0  0  0  0  0  0  0  0
    8.8818   -2.3912   64.9701 C   0  0  0  0  0  0  0  0  0  0  0  0
    5.9960   -2.7435   62.9551 C   0  0  0  0  0  0  0  0  0  0  0  0
    7.8942   -1.4519   65.6598 C   0  0  0  0  0  0  0  0  0  0  0  0
    5.8275   -2.4077   64.4424 C   0  0  0  0  0  0  0  0  0  0  0  0
    6.5918   -1.1659   64.9050 C   0  0  0  0  0  0  0  0  0  0  0  0
   10.2364   -1.0652   63.4665 N   0  0  0  0  0  0  0  0  0  0  0  0
    8.0353   -1.3541   58.9346 C   0  0  0  0  0  0  0  0  0  0  0  0
    7.5722   -3.5299   59.8772 C   0  0  0  0  0  0  0  0  0  0  0  0
    7.3700   -1.7196   57.7644 C   0  0  0  0  0  0  0  0  0  0  0  0
    6.9068   -3.8953   58.7071 C   0  0  0  0  0  0  0  0  0  0  0  0
    8.1365   -2.2594   59.9910 C   0  0  0  0  0  0  0  0  0  0  0  0
    6.8057   -2.9901   57.6506 C   0  0  0  0  0  0  0  0  0  0  0  0
    6.1668   -3.3409   56.5267 F   0  0  0  0  0  0  0  0  0  0  0  0
   12.9215    0.0413   62.6618 C   0  0  0  0  0  0  0  0  0  0  0  0
   11.5742    1.3200   61.0499 C   0  0  0  0  0  0  0  0  0  0  0  0
   13.8542   -0.4395   61.5565 C   0  0  0  0  0  0  0  0  0  0  0  0
   12.4805    0.8696   59.9060 C   0  0  0  0  0  0  0  0  0  0  0  0
   11.5923    0.3009   62.1043 N   0  0  0  0  0  0  0  0  0  0  0  0
   13.8690    0.5943   60.4473 N   0  0  0  0  0  0  0  0  0  0  0  0
   14.2227    1.4775   60.8532 H   0  0  0  0  0  0  0  0  0  0  0  0
   15.5501    1.4669   58.8794 C   0  0  0  0  0  0  0  0  0  0  0  0
   14.8302    0.2233   59.3531 C   0  0  0  0  0  0  0  0  0  0  0  0
 13 15  2  0  0  0
 13 17  1  0  0  0
 14 16  1  0  0  0
 14 17  2  0  0  0
 15 18  1  0  0  0
 16 18  2  0  0  0
  1  2  2  0  0  0
  1  5  1  0  0  0
 17  2  1  0  0  0
  2  3  1  0  0  0
  3  4  2  0  0  0
  3  6  1  0  0  0
 18 19  1  0  0  0
  4  7  1  0  0  0
  4 12  1  0  0  0
  5 12  2  0  0  0
  5 24  1  0  0  0
  6  8  1  0  0  0
  7  9  1  0  0  0
  8 10  1  0  0  0
  9 11  1  0  0  0
 10 11  1  0  0  0
 20 22  1  0  0  0
 20 24  1  0  0  0
 21 23  1  0  0  0
 21 24  1  0  0  0
 22 25  1  0  0  0
 23 25  1  0  0  0
 27 28  1  0  0  0
 28 25  1  0  0  0
 25 26  1  0  0  0
M  CHG 1  25   1
M  END
> <minimizedAffinity>
-8.40060

> <CNNscore>
0.3528041840

> <CNNaffinity>
6.7418403625

> <CNN_VS>
2.3785495758

> <CNNaffinity_variance>
0.1565766633

$$$$



 28 31  0  0  0  0  0  0  0  0999 V2000
    7.7630   -2.8935   61.6008 C   0  0  0  0  0  0  0  0  0  0  0  0
    6.7919   -3.5899   60.8927 C   0  0  0  0  0  0  0  0  0  0  0  0
    5.8603   -4.3961   61.5608 C   0  0  0  0  0  0  0  0  0  0  0  0
    5.9502   -4.4567   62.9566 C   0  0  0  0  0  0  0  0  0  0  0  0
    7.7708   -3.0220   62.9750 C   0  0  0  0  0  0  0  0  0  0  0  0
    4.8160   -5.1333   60.7632 C   0  0  0  0  0  0  0  0  0  0  0  0
    4.9633   -5.2355   63.7826 C   0  0  0  0  0  0  0  0  0  0  0  0
    3.4628   -4.4241   60.6839 C   0  0  0  0  0  0  0  0  0  0  0  0
    3.7666   -4.3923   64.2185 C   0  0  0  0  0  0  0  0  0  0  0  0
    2.5773   -4.5379   61.9313 C   0  0  0  0  0  0  0  0  0  0  0  0
    3.0138   -3.6580   63.1041 C   0  0  0  0  0  0  0  0  0  0  0  0
    6.8911   -3.7782   63.6653 N   0  0  0  0  0  0  0  0  0  0  0  0
    7.1093   -2.2145   58.8700 C   0  0  0  0  0  0  0  0  0  0  0  0
    6.4878   -4.5374   58.6357 C   0  0  0  0  0  0  0  0  0  0  0  0
    7.1138   -2.0757   57.4821 C   0  0  0  0  0  0  0  0  0  0  0  0
    6.4922   -4.3986   57.2478 C   0  0  0  0  0  0  0  0  0  0  0  0
    6.7964   -3.4454   59.4468 C   0  0  0  0  0  0  0  0  0  0  0  0
    6.8052   -3.1678   56.6710 C   0  0  0  0  0  0  0  0  0  0  0  0
    6.8095   -3.0343   55.3381 F   0  0  0  0  0  0  0  0  0  0  0  0
    9.4418   -1.1664   63.1126 C   0  0  0  0  0  0  0  0  0  0  0  0
    8.8280   -2.4179   65.1389 C   0  0  0  0  0  0  0  0  0  0  0  0
    8.8352    0.1135   63.6752 C   0  0  0  0  0  0  0  0  0  0  0  0
    8.2090   -1.1624   65.7500 C   0  0  0  0  0  0  0  0  0  0  0  0
    8.7498   -2.3271   63.6774 N   0  0  0  0  0  0  0  0  0  0  0  0
    8.9047    0.0616   65.1890 N   0  0  0  0  0  0  0  0  0  0  0  0
    9.9034   -0.0044   65.4501 H   0  0  0  0  0  0  0  0  0  0  0  0
    7.1644    1.7939   65.0625 C   0  0  0  0  0  0  0  0  0  0  0  0
    8.3927    1.3289   65.8138 C   0  0  0  0  0  0  0  0  0  0  0  0
 13 15  2  0  0  0
 13 17  1  0  0  0
 14 16  1  0  0  0
 14 17  2  0  0  0
 15 18  1  0  0  0
 16 18  2  0  0  0
  1  2  2  0  0  0
  1  5  1  0  0  0
 17  2  1  0  0  0
  2  3  1  0  0  0
  3  4  2  0  0  0
  3  6  1  0  0  0
 18 19  1  0  0  0
  4  7  1  0  0  0
  4 12  1  0  0  0
  5 12  2  0  0  0
  5 24  1  0  0  0
  6  8  1  0  0  0
  7  9  1  0  0  0
  8 10  1  0  0  0
  9 11  1  0  0  0
 10 11  1  0  0  0
 20 22  1  0  0  0
 20 24  1  0  0  0
 21 23  1  0  0  0
 21 24  1  0  0  0
 22 25  1  0  0  0
 23 25  1  0  0  0
 27 28  1  0  0  0
 28 25  1  0  0  0
 25 26  1  0  0  0
M  CHG 1  25   1
M  END
> <minimizedAffinity>
-6.77404

> <CNNscore>
0.3322654366

> <CNNaffinity>
6.2722349167

> <CNN_VS>
2.0840468407

> <CNNaffinity_variance>
0.2424929589

$$$$



 28 31  0  0  0  0  0  0  0  0999 V2000
   12.2002   -0.4363   57.6686 C   0  0  0  0  0  0  0  0  0  0  0  0
   13.3693   -0.6867   56.9616 C   0  0  0  0  0  0  0  0  0  0  0  0
   14.5486    0.0090   57.2607 C   0  0  0  0  0  0  0  0  0  0  0  0
   14.4926    0.9483   58.2974 C   0  0  0  0  0  0  0  0  0  0  0  0
   12.2468    0.5119   58.6704 C   0  0  0  0  0  0  0  0  0  0  0  0
   15.8011   -0.2910   56.4788 C   0  0  0  0  0  0  0  0  0  0  0  0
   15.7116    1.7049   58.7497 C   0  0  0  0  0  0  0  0  0  0  0  0
   16.7506   -1.2788   57.1593 C   0  0  0  0  0  0  0  0  0  0  0  0
   16.4643    0.9910   59.8708 C   0  0  0  0  0  0  0  0  0  0  0  0
   17.6078   -0.7043   58.2943 C   0  0  0  0  0  0  0  0  0  0  0  0
   16.8535   -0.4667   59.6038 C   0  0  0  0  0  0  0  0  0  0  0  0
   13.3584    1.2022   59.0023 N   0  0  0  0  0  0  0  0  0  0  0  0
   12.8421   -1.3363   54.6413 C   0  0  0  0  0  0  0  0  0  0  0  0
   13.7056   -2.9978   56.1680 C   0  0  0  0  0  0  0  0  0  0  0  0
   12.7804   -2.2964   53.6314 C   0  0  0  0  0  0  0  0  0  0  0  0
   13.6437   -3.9580   55.1581 C   0  0  0  0  0  0  0  0  0  0  0  0
   13.3049   -1.6871   55.9096 C   0  0  0  0  0  0  0  0  0  0  0  0
   13.1811   -3.6073   53.8898 C   0  0  0  0  0  0  0  0  0  0  0  0
   13.1217   -4.5292   52.9198 F   0  0  0  0  0  0  0  0  0  0  0  0
   10.9691    0.5765   60.8192 C   0  0  0  0  0  0  0  0  0  0  0  0
   10.0344    1.6312   58.8036 C   0  0  0  0  0  0  0  0  0  0  0  0
   11.0843    1.9267   61.5167 C   0  0  0  0  0  0  0  0  0  0  0  0
   10.1258    3.0080   59.4583 C   0  0  0  0  0  0  0  0  0  0  0  0
   11.0711    0.7623   59.3701 N   0  0  0  0  0  0  0  0  0  0  0  0
   10.0204    2.8541   60.9624 N   0  0  0  0  0  0  0  0  0  0  0  0
    9.1011    2.4254   61.1649 H   0  0  0  0  0  0  0  0  0  0  0  0
   11.2859    4.9355   61.2969 C   0  0  0  0  0  0  0  0  0  0  0  0
   10.0233    4.1851   61.6603 C   0  0  0  0  0  0  0  0  0  0  0  0
 13 15  2  0  0  0
 13 17  1  0  0  0
 14 16  1  0  0  0
 14 17  2  0  0  0
 15 18  1  0  0  0
 16 18  2  0  0  0
  1  2  2  0  0  0
  1  5  1  0  0  0
 17  2  1  0  0  0
  2  3  1  0  0  0
  3  4  2  0  0  0
  3  6  1  0  0  0
 18 19  1  0  0  0
  4  7  1  0  0  0
  4 12  1  0  0  0
  5 12  2  0  0  0
  5 24  1  0  0  0
  6  8  1  0  0  0
  7  9  1  0  0  0
  8 10  1  0  0  0
  9 11  1  0  0  0
 10 11  1  0  0  0
 20 22  1  0  0  0
 20 24  1  0  0  0
 21 23  1  0  0  0
 21 24  1  0  0  0
 22 25  1  0  0  0
 23 25  1  0  0  0
 27 28  1  0  0  0
 28 25  1  0  0  0
 25 26  1  0  0  0
M  CHG 1  25   1
M  END
> <minimizedAffinity>
0.60175

> <CNNscore>
0.3255173862

> <CNNaffinity>
6.4488244057

> <CNN_VS>
2.0992045403

> <CNNaffinity_variance>
0.4322227836

$$$$



 28 31  0  0  0  0  0  0  0  0999 V2000
   12.9415   -0.2486   58.5221 C   0  0  0  0  0  0  0  0  0  0  0  0
   13.9535    0.0941   57.6346 C   0  0  0  0  0  0  0  0  0  0  0  0
   15.2064    0.5102   58.1050 C   0  0  0  0  0  0  0  0  0  0  0  0
   15.3873    0.5540   59.4926 C   0  0  0  0  0  0  0  0  0  0  0  0
   13.2177   -0.1687   59.8721 C   0  0  0  0  0  0  0  0  0  0  0  0
   16.2844    0.8690   57.1154 C   0  0  0  0  0  0  0  0  0  0  0  0
   16.7094    0.9204   60.1096 C   0  0  0  0  0  0  0  0  0  0  0  0
   17.2762   -0.2586   56.8232 C   0  0  0  0  0  0  0  0  0  0  0  0
   17.6004   -0.2956   60.3559 C   0  0  0  0  0  0  0  0  0  0  0  0
   18.3498   -0.4950   57.8931 C   0  0  0  0  0  0  0  0  0  0  0  0
   17.8490   -1.2082   59.1505 C   0  0  0  0  0  0  0  0  0  0  0  0
   14.4095    0.2176   60.3749 N   0  0  0  0  0  0  0  0  0  0  0  0
   13.6846    1.1519   55.4226 C   0  0  0  0  0  0  0  0  0  0  0  0
   13.3181   -1.2253   55.6498 C   0  0  0  0  0  0  0  0  0  0  0  0
   13.3914    1.0670   54.0616 C   0  0  0  0  0  0  0  0  0  0  0  0
   13.0248   -1.3102   54.2888 C   0  0  0  0  0  0  0  0  0  0  0  0
   13.6480    0.0056   56.2167 C   0  0  0  0  0  0  0  0  0  0  0  0
   13.0615   -0.1641   53.4947 C   0  0  0  0  0  0  0  0  0  0  0  0
   12.7800   -0.2454   52.1875 F   0  0  0  0  0  0  0  0  0  0  0  0
   12.1948   -0.0658   62.1518 C   0  0  0  0  0  0  0  0  0  0  0  0
   10.8832   -0.9224   60.2558 C   0  0  0  0  0  0  0  0  0  0  0  0
   11.2579    1.1260   62.3087 C   0  0  0  0  0  0  0  0  0  0  0  0
    9.9126    0.2510   60.3723 C   0  0  0  0  0  0  0  0  0  0  0  0
   12.1980   -0.5072   60.7553 N   0  0  0  0  0  0  0  0  0  0  0  0
    9.8813    0.7330   61.8089 N   0  0  0  0  0  0  0  0  0  0  0  0
    9.5549   -0.0565   62.3921 H   0  0  0  0  0  0  0  0  0  0  0  0
    8.8950    2.7424   60.7914 C   0  0  0  0  0  0  0  0  0  0  0  0
    8.8815    1.8379   62.0043 C   0  0  0  0  0  0  0  0  0  0  0  0
 13 15  2  0  0  0
 13 17  1  0  0  0
 14 16  1  0  0  0
 14 17  2  0  0  0
 15 18  1  0  0  0
 16 18  2  0  0  0
  1  2  2  0  0  0
  1  5  1  0  0  0
 17  2  1  0  0  0
  2  3  1  0  0  0
  3  4  2  0  0  0
  3  6  1  0  0  0
 18 19  1  0  0  0
  4  7  1  0  0  0
  4 12  1  0  0  0
  5 12  2  0  0  0
  5 24  1  0  0  0
  6  8  1  0  0  0
  7  9  1  0  0  0
  8 10  1  0  0  0
  9 11  1  0  0  0
 10 11  1  0  0  0
 20 22  1  0  0  0
 20 24  1  0  0  0
 21 23  1  0  0  0
 21 24  1  0  0  0
 22 25  1  0  0  0
 23 25  1  0  0  0
 27 28  1  0  0  0
 28 25  1  0  0  0
 25 26  1  0  0  0
M  CHG 1  25   1
M  END
> <minimizedAffinity>
-6.76010

> <CNNscore>
0.3141461015

> <CNNaffinity>
6.7106657028

> <CNN_VS>
2.1081295013

> <CNNaffinity_variance>
0.1628490984

$$$$



 21 24  0  0  0  0  0  0  0  0999 V2000
   14.7354   -0.7712   53.5918 C   0  0  0  0  0  0  0  0  0  0  0  0
   14.0603   -1.6637   54.4132 C   0  0  0  0  0  0  0  0  0  0  0  0
   20.3491   -0.6134   56.6734 C   0  0  0  0  0  0  0  0  0  0  0  0
   15.6619    0.1099   54.1440 C   0  0  0  0  0  0  0  0  0  0  0  0
   14.3079   -1.6659   55.7858 C   0  0  0  0  0  0  0  0  0  0  0  0
   19.3416    0.1311   56.0811 C   0  0  0  0  0  0  0  0  0  0  0  0
   20.0613   -1.2354   57.8701 C   0  0  0  0  0  0  0  0  0  0  0  0
   15.9225    0.1134   55.5266 C   0  0  0  0  0  0  0  0  0  0  0  0
   15.2372   -0.7793   56.3717 C   0  0  0  0  0  0  0  0  0  0  0  0
   18.0875    0.2290   56.6953 C   0  0  0  0  0  0  0  0  0  0  0  0
   17.8621   -0.4511   57.9020 C   0  0  0  0  0  0  0  0  0  0  0  0
   16.9848    1.0327   56.0611 C   0  0  0  0  0  0  0  0  0  0  0  0
   16.6493   -0.4221   59.9960 C   0  0  0  0  0  0  0  0  0  0  0  0
   15.4622    0.3147   60.5981 C   0  0  0  0  0  0  0  0  0  0  0  0
   14.1762   -0.0725   58.5004 C   0  0  0  0  0  0  0  0  0  0  0  0
   15.3743   -0.8273   57.8936 C   0  0  0  0  0  0  0  0  0  0  0  0
   12.9716    0.3804   60.6398 C   0  0  0  0  0  0  0  0  0  0  0  0
   18.8617   -1.1652   58.4900 N   0  0  0  0  0  0  0  0  0  0  0  0
   16.6151   -0.3244   58.5306 N   0  0  0  0  0  0  0  0  0  0  0  0
   14.1900   -0.2280   60.0031 N   0  0  0  0  0  0  0  0  0  0  0  0
   14.1558   -1.2359   60.2097 H   0  0  0  0  0  0  0  0  0  0  0  0
  1  2  1  0  0  0
  1  4  2  0  0  0
  2  5  2  0  0  0
  3  6  2  0  0  0
  3  7  1  0  0  0
  4  8  1  0  0  0
  5  9  1  0  0  0
  6 10  1  0  0  0
  7 18  2  0  0  0
  8  9  2  0  0  0
  8 12  1  0  0  0
  9 16  1  0  0  0
 10 11  2  0  0  0
 10 12  1  0  0  0
 11 18  1  0  0  0
 11 19  1  0  0  0
 13 14  1  0  0  0
 13 19  1  0  0  0
 14 20  1  0  0  0
 15 16  1  0  0  0
 15 20  1  0  0  0
 16 19  1  0  0  0
 17 20  1  0  0  0
 20 21  1  0  0  0
M  CHG 1  20   1
M  END
> <minimizedAffinity>
-9.17213

> <CNNscore>
0.8138328195

> <CNNaffinity>
6.5286588669

> <CNN_VS>
5.3132367134

> <CNNaffinity_variance>
0.2228273451

$$$$



 21 24  0  0  0  0  0  0  0  0999 V2000
    7.0129   -4.1656   62.2007 C   0  0  0  0  0  0  0  0  0  0  0  0
    7.1967   -3.3308   61.1069 C   0  0  0  0  0  0  0  0  0  0  0  0
    7.6540    0.1557   66.8858 C   0  0  0  0  0  0  0  0  0  0  0  0
    7.7092   -3.9195   63.3816 C   0  0  0  0  0  0  0  0  0  0  0  0
    8.0832   -2.2576   61.1952 C   0  0  0  0  0  0  0  0  0  0  0  0
    8.0177   -1.0980   66.4206 C   0  0  0  0  0  0  0  0  0  0  0  0
    8.1658    1.2528   66.2253 C   0  0  0  0  0  0  0  0  0  0  0  0
    8.6027   -2.8374   63.4830 C   0  0  0  0  0  0  0  0  0  0  0  0
    8.8058   -1.9898   62.3780 C   0  0  0  0  0  0  0  0  0  0  0  0
    8.8720   -1.2168   65.3180 C   0  0  0  0  0  0  0  0  0  0  0  0
    9.3346   -0.0540   64.6829 C   0  0  0  0  0  0  0  0  0  0  0  0
    9.2725   -2.5723   64.8021 C   0  0  0  0  0  0  0  0  0  0  0  0
   11.1659    0.9334   63.4467 C   0  0  0  0  0  0  0  0  0  0  0  0
   12.4107    0.4603   62.7112 C   0  0  0  0  0  0  0  0  0  0  0  0
   11.0615   -1.3124   61.5972 C   0  0  0  0  0  0  0  0  0  0  0  0
    9.7984   -0.8278   62.3341 C   0  0  0  0  0  0  0  0  0  0  0  0
   13.1997   -0.5365   60.5681 C   0  0  0  0  0  0  0  0  0  0  0  0
    8.9902    1.1757   65.1563 N   0  0  0  0  0  0  0  0  0  0  0  0
   10.2158   -0.1766   63.5990 N   0  0  0  0  0  0  0  0  0  0  0  0
   12.0057   -0.1504   61.3958 N   0  0  0  0  0  0  0  0  0  0  0  0
   11.4999    0.5697   60.8619 H   0  0  0  0  0  0  0  0  0  0  0  0
  1  2  1  0  0  0
  1  4  2  0  0  0
  2  5  2  0  0  0
  3  6  2  0  0  0
  3  7  1  0  0  0
  4  8  1  0  0  0
  5  9  1  0  0  0
  6 10  1  0  0  0
  7 18  2  0  0  0
  8  9  2  0  0  0
  8 12  1  0  0  0
  9 16  1  0  0  0
 10 11  2  0  0  0
 10 12  1  0  0  0
 11 18  1  0  0  0
 11 19  1  0  0  0
 13 14  1  0  0  0
 13 19  1  0  0  0
 14 20  1  0  0  0
 15 16  1  0  0  0
 15 20  1  0  0  0
 16 19  1  0  0  0
 17 20  1  0  0  0
 20 21  1  0  0  0
M  CHG 1  20   1
M  END
> <minimizedAffinity>
-7.93872

> <CNNscore>
0.6002153158

> <CNNaffinity>
5.7720108032

> <CNN_VS>
3.4644494057

> <CNNaffinity_variance>
0.0395926312

$$$$



 21 24  0  0  0  0  0  0  0  0999 V2000
    8.7662   -3.0926   59.2634 C   0  0  0  0  0  0  0  0  0  0  0  0
    8.5993   -3.6376   60.5292 C   0  0  0  0  0  0  0  0  0  0  0  0
   14.4122   -0.1988   60.1484 C   0  0  0  0  0  0  0  0  0  0  0  0
    9.4063   -1.8640   59.1198 C   0  0  0  0  0  0  0  0  0  0  0  0
    9.0656   -2.9476   61.6480 C   0  0  0  0  0  0  0  0  0  0  0  0
   13.1215   -0.0756   59.6593 C   0  0  0  0  0  0  0  0  0  0  0  0
   14.5721   -0.2472   61.5174 C   0  0  0  0  0  0  0  0  0  0  0  0
    9.8842   -1.1614   60.2412 C   0  0  0  0  0  0  0  0  0  0  0  0
    9.7121   -1.6981   61.5308 C   0  0  0  0  0  0  0  0  0  0  0  0
   12.0390   -0.0077   60.5443 C   0  0  0  0  0  0  0  0  0  0  0  0
   12.2785   -0.0864   61.9249 C   0  0  0  0  0  0  0  0  0  0  0  0
   10.6328    0.1240   60.0255 C   0  0  0  0  0  0  0  0  0  0  0  0
   11.5142    0.6148   64.1114 C   0  0  0  0  0  0  0  0  0  0  0  0
   10.2676    1.2392   64.7202 C   0  0  0  0  0  0  0  0  0  0  0  0
    8.8563   -0.3655   63.4407 C   0  0  0  0  0  0  0  0  0  0  0  0
   10.1185   -1.0048   62.8313 C   0  0  0  0  0  0  0  0  0  0  0  0
    7.9590    0.7209   65.5018 C   0  0  0  0  0  0  0  0  0  0  0  0
   13.5505   -0.1873   62.4010 N   0  0  0  0  0  0  0  0  0  0  0  0
   11.1949    0.0145   62.8092 N   0  0  0  0  0  0  0  0  0  0  0  0
    9.1834    0.1977   64.8039 N   0  0  0  0  0  0  0  0  0  0  0  0
    9.5406   -0.5766   65.3805 H   0  0  0  0  0  0  0  0  0  0  0  0
  1  2  1  0  0  0
  1  4  2  0  0  0
  2  5  2  0  0  0
  3  6  2  0  0  0
  3  7  1  0  0  0
  4  8  1  0  0  0
  5  9  1  0  0  0
  6 10  1  0  0  0
  7 18  2  0  0  0
  8  9  2  0  0  0
  8 12  1  0  0  0
  9 16  1  0  0  0
 10 11  2  0  0  0
 10 12  1  0  0  0
 11 18  1  0  0  0
 11 19  1  0  0  0
 13 14  1  0  0  0
 13 19  1  0  0  0
 14 20  1  0  0  0
 15 16  1  0  0  0
 15 20  1  0  0  0
 16 19  1  0  0  0
 17 20  1  0  0  0
 20 21  1  0  0  0
M  CHG 1  20   1
M  END
> <minimizedAffinity>
-8.61556

> <CNNscore>
0.4934963286

> <CNNaffinity>
5.8244676590

> <CNN_VS>
2.8743534088

> <CNNaffinity_variance>
0.1135016680

$$$$



 21 24  0  0  0  0  0  0  0  0999 V2000
   13.3780   -0.3345   53.3512 C   0  0  0  0  0  0  0  0  0  0  0  0
   14.5586    0.3723   53.5347 C   0  0  0  0  0  0  0  0  0  0  0  0
   10.1619    1.7218   58.4954 C   0  0  0  0  0  0  0  0  0  0  0  0
   12.6677   -0.7914   54.4586 C   0  0  0  0  0  0  0  0  0  0  0  0
   15.0294    0.6122   54.8256 C   0  0  0  0  0  0  0  0  0  0  0  0
   10.5380    0.6241   57.7378 C   0  0  0  0  0  0  0  0  0  0  0  0
   11.1399    2.3457   59.2412 C   0  0  0  0  0  0  0  0  0  0  0  0
   13.1312   -0.5514   55.7652 C   0  0  0  0  0  0  0  0  0  0  0  0
   14.3321    0.1549   55.9647 C   0  0  0  0  0  0  0  0  0  0  0  0
   11.8683    0.1881   57.7462 C   0  0  0  0  0  0  0  0  0  0  0  0
   12.8126    0.8882   58.5127 C   0  0  0  0  0  0  0  0  0  0  0  0
   12.2895   -1.0012   56.9263 C   0  0  0  0  0  0  0  0  0  0  0  0
   14.8549    0.6986   59.7971 C   0  0  0  0  0  0  0  0  0  0  0  0
   15.9727   -0.3153   59.9891 C   0  0  0  0  0  0  0  0  0  0  0  0
   16.1050   -0.6157   57.5201 C   0  0  0  0  0  0  0  0  0  0  0  0
   14.9798    0.4182   57.3242 C   0  0  0  0  0  0  0  0  0  0  0  0
   18.0632   -1.1945   58.9567 C   0  0  0  0  0  0  0  0  0  0  0  0
   12.4338    1.9542   59.2710 N   0  0  0  0  0  0  0  0  0  0  0  0
   14.1372    0.4291   58.5440 N   0  0  0  0  0  0  0  0  0  0  0  0
   16.8718   -0.2945   58.7815 N   0  0  0  0  0  0  0  0  0  0  0  0
   17.2394    0.6621   58.6846 H   0  0  0  0  0  0  0  0  0  0  0  0
  1  2  1  0  0  0
  1  4  2  0  0  0
  2  5  2  0  0  0
  3  6  2  0  0  0
  3  7  1  0  0  0
  4  8  1  0  0  0
  5  9  1  0  0  0
  6 10  1  0  0  0
  7 18  2  0  0  0
  8  9  2  0  0  0
  8 12  1  0  0  0
  9 16  1  0  0  0
 10 11  2  0  0  0
 10 12  1  0  0  0
 11 18  1  0  0  0
 11 19  1  0  0  0
 13 14  1  0  0  0
 13 19  1  0  0  0
 14 20  1  0  0  0
 15 16  1  0  0  0
 15 20  1  0  0  0
 16 19  1  0  0  0
 17 20  1  0  0  0
 20 21  1  0  0  0
M  CHG 1  20   1
M  END
> <minimizedAffinity>
-8.51782

> <CNNscore>
0.4862265587

> <CNNaffinity>
5.8434686661

> <CNN_VS>
2.8412497044

> <CNNaffinity_variance>
0.3290142417

$$$$



 21 24  0  0  0  0  0  0  0  0999 V2000
   13.1514    0.3242   52.6200 C   0  0  0  0  0  0  0  0  0  0  0  0
   14.1525    1.2858   52.6316 C   0  0  0  0  0  0  0  0  0  0  0  0
   11.6666    0.3402   58.8514 C   0  0  0  0  0  0  0  0  0  0  0  0
   12.9946   -0.5221   53.7150 C   0  0  0  0  0  0  0  0  0  0  0  0
   14.9992    1.3919   53.7349 C   0  0  0  0  0  0  0  0  0  0  0  0
   11.9548   -0.4362   57.7404 C   0  0  0  0  0  0  0  0  0  0  0  0
   12.7024    1.0568   59.4132 C   0  0  0  0  0  0  0  0  0  0  0  0
   13.8404   -0.4212   54.8348 C   0  0  0  0  0  0  0  0  0  0  0  0
   14.8658    0.5426   54.8546 C   0  0  0  0  0  0  0  0  0  0  0  0
   13.2568   -0.4711   57.2271 C   0  0  0  0  0  0  0  0  0  0  0  0
   14.2541    0.3035   57.8392 C   0  0  0  0  0  0  0  0  0  0  0  0
   13.5818   -1.3086   56.0201 C   0  0  0  0  0  0  0  0  0  0  0  0
   16.6160    0.4518   58.3454 C   0  0  0  0  0  0  0  0  0  0  0  0
   17.9058   -0.2218   57.9014 C   0  0  0  0  0  0  0  0  0  0  0  0
   17.1957    0.0162   55.5259 C   0  0  0  0  0  0  0  0  0  0  0  0
   15.8939    0.7072   55.9741 C   0  0  0  0  0  0  0  0  0  0  0  0
   19.6134   -0.2546   56.0869 C   0  0  0  0  0  0  0  0  0  0  0  0
   13.9701    1.0492   58.9429 N   0  0  0  0  0  0  0  0  0  0  0  0
   15.5638    0.2408   57.3422 N   0  0  0  0  0  0  0  0  0  0  0  0
   18.2854    0.2879   56.5364 N   0  0  0  0  0  0  0  0  0  0  0  0
   18.3948    1.3091   56.6058 H   0  0  0  0  0  0  0  0  0  0  0  0
  1  2  1  0  0  0
  1  4  2  0  0  0
  2  5  2  0  0  0
  3  6  2  0  0  0
  3  7  1  0  0  0
  4  8  1  0  0  0
  5  9  1  0  0  0
  6 10  1  0  0  0
  7 18  2  0  0  0
  8  9  2  0  0  0
  8 12  1  0  0  0
  9 16  1  0  0  0
 10 11  2  0  0  0
 10 12  1  0  0  0
 11 18  1  0  0  0
 11 19  1  0  0  0
 13 14  1  0  0  0
 13 19  1  0  0  0
 14 20  1  0  0  0
 15 16  1  0  0  0
 15 20  1  0  0  0
 16 19  1  0  0  0
 17 20  1  0  0  0
 20 21  1  0  0  0
M  CHG 1  20   1
M  END
> <minimizedAffinity>
-8.09847

> <CNNscore>
0.4804813862

> <CNNaffinity>
5.9541716576

> <CNN_VS>
2.8608686924

> <CNNaffinity_variance>
0.3315954208

$$$$



 21 24  0  0  0  0  0  0  0  0999 V2000
   15.0785   -0.2624   53.4885 C   0  0  0  0  0  0  0  0  0  0  0  0
   15.5507    0.8783   54.1231 C   0  0  0  0  0  0  0  0  0  0  0  0
    9.4656   -0.8513   56.5188 C   0  0  0  0  0  0  0  0  0  0  0  0
   14.3027   -1.1760   54.1979 C   0  0  0  0  0  0  0  0  0  0  0  0
   15.2527    1.0971   55.4680 C   0  0  0  0  0  0  0  0  0  0  0  0
   10.6122   -1.4985   56.0869 C   0  0  0  0  0  0  0  0  0  0  0  0
    9.5904    0.0294   57.5727 C   0  0  0  0  0  0  0  0  0  0  0  0
   13.9926   -0.9632   55.5537 C   0  0  0  0  0  0  0  0  0  0  0  0
   14.4739    0.1841   56.2116 C   0  0  0  0  0  0  0  0  0  0  0  0
   11.8385   -1.2469   56.7136 C   0  0  0  0  0  0  0  0  0  0  0  0
   11.8912   -0.3196   57.7657 C   0  0  0  0  0  0  0  0  0  0  0  0
   13.0909   -1.9418   56.2526 C   0  0  0  0  0  0  0  0  0  0  0  0
   13.0061    0.2731   59.8302 C   0  0  0  0  0  0  0  0  0  0  0  0
   14.2808   -0.1061   60.5691 C   0  0  0  0  0  0  0  0  0  0  0  0
   15.5590    0.1020   58.4414 C   0  0  0  0  0  0  0  0  0  0  0  0
   14.2705    0.4956   57.6944 C   0  0  0  0  0  0  0  0  0  0  0  0
   16.7396    0.2930   60.6330 C   0  0  0  0  0  0  0  0  0  0  0  0
   10.7579    0.2988   58.1993 N   0  0  0  0  0  0  0  0  0  0  0  0
   13.1150   -0.0944   58.4121 N   0  0  0  0  0  0  0  0  0  0  0  0
   15.4584    0.5361   59.8850 N   0  0  0  0  0  0  0  0  0  0  0  0
   15.3042    1.5538   59.8915 H   0  0  0  0  0  0  0  0  0  0  0  0
  1  2  1  0  0  0
  1  4  2  0  0  0
  2  5  2  0  0  0
  3  6  2  0  0  0
  3  7  1  0  0  0
  4  8  1  0  0  0
  5  9  1  0  0  0
  6 10  1  0  0  0
  7 18  2  0  0  0
  8  9  2  0  0  0
  8 12  1  0  0  0
  9 16  1  0  0  0
 10 11  2  0  0  0
 10 12  1  0  0  0
 11 18  1  0  0  0
 11 19  1  0  0  0
 13 14  1  0  0  0
 13 19  1  0  0  0
 14 20  1  0  0  0
 15 16  1  0  0  0
 15 20  1  0  0  0
 16 19  1  0  0  0
 17 20  1  0  0  0
 20 21  1  0  0  0
M  CHG 1  20   1
M  END
> <minimizedAffinity>
-5.66104

> <CNNscore>
0.4202328920

> <CNNaffinity>
5.6950917244

> <CNN_VS>
2.3932647705

> <CNNaffinity_variance>
0.4618502259

$$$$



 21 24  0  0  0  0  0  0  0  0999 V2000
    9.1755   -2.8002   58.7404 C   0  0  0  0  0  0  0  0  0  0  0  0
    9.1655   -1.4188   58.8775 C   0  0  0  0  0  0  0  0  0  0  0  0
    5.0837   -4.3085   63.4326 C   0  0  0  0  0  0  0  0  0  0  0  0
    9.0452   -3.6067   59.8684 C   0  0  0  0  0  0  0  0  0  0  0  0
    9.0339   -0.8488   60.1437 C   0  0  0  0  0  0  0  0  0  0  0  0
    6.3073   -4.5819   62.8424 C   0  0  0  0  0  0  0  0  0  0  0  0
    4.9635   -3.1243   64.1292 C   0  0  0  0  0  0  0  0  0  0  0  0
    8.9078   -3.0424   61.1498 C   0  0  0  0  0  0  0  0  0  0  0  0
    8.9066   -1.6434   61.3036 C   0  0  0  0  0  0  0  0  0  0  0  0
    7.3636   -3.6712   62.9627 C   0  0  0  0  0  0  0  0  0  0  0  0
    7.1588   -2.4756   63.6683 C   0  0  0  0  0  0  0  0  0  0  0  0
    8.6963   -3.9557   62.3246 C   0  0  0  0  0  0  0  0  0  0  0  0
    8.2051   -0.7859   65.0492 C   0  0  0  0  0  0  0  0  0  0  0  0
    9.6151   -0.3502   65.4188 C   0  0  0  0  0  0  0  0  0  0  0  0
   10.2678   -0.4760   63.0184 C   0  0  0  0  0  0  0  0  0  0  0  0
    8.8377   -0.9077   62.6420 C   0  0  0  0  0  0  0  0  0  0  0  0
   11.5791    0.9451   64.5977 C   0  0  0  0  0  0  0  0  0  0  0  0
    5.9605   -2.2209   64.2633 N   0  0  0  0  0  0  0  0  0  0  0  0
    8.2287   -1.5810   63.8141 N   0  0  0  0  0  0  0  0  0  0  0  0
   10.2250    0.3881   64.2569 N   0  0  0  0  0  0  0  0  0  0  0  0
    9.6203    1.1950   64.0499 H   0  0  0  0  0  0  0  0  0  0  0  0
  1  2  1  0  0  0
  1  4  2  0  0  0
  2  5  2  0  0  0
  3  6  2  0  0  0
  3  7  1  0  0  0
  4  8  1  0  0  0
  5  9  1  0  0  0
  6 10  1  0  0  0
  7 18  2  0  0  0
  8  9  2  0  0  0
  8 12  1  0  0  0
  9 16  1  0  0  0
 10 11  2  0  0  0
 10 12  1  0  0  0
 11 18  1  0  0  0
 11 19  1  0  0  0
 13 14  1  0  0  0
 13 19  1  0  0  0
 14 20  1  0  0  0
 15 16  1  0  0  0
 15 20  1  0  0  0
 16 19  1  0  0  0
 17 20  1  0  0  0
 20 21  1  0  0  0
M  CHG 1  20   1
M  END
> <minimizedAffinity>
-7.68505

> <CNNscore>
0.4170737863

> <CNNaffinity>
5.3156118393

> <CNN_VS>
2.2170023918

> <CNNaffinity_variance>
0.0493154377

$$$$



 21 24  0  0  0  0  0  0  0  0999 V2000
    9.3914   -2.7654   58.9660 C   0  0  0  0  0  0  0  0  0  0  0  0
    9.2095   -3.8739   59.7815 C   0  0  0  0  0  0  0  0  0  0  0  0
   11.6537    1.3387   63.3333 C   0  0  0  0  0  0  0  0  0  0  0  0
    9.1894   -1.4878   59.4825 C   0  0  0  0  0  0  0  0  0  0  0  0
    8.8176   -3.7011   61.1089 C   0  0  0  0  0  0  0  0  0  0  0  0
   10.7593    1.1447   62.2928 C   0  0  0  0  0  0  0  0  0  0  0  0
   11.3930    0.6953   64.5250 C   0  0  0  0  0  0  0  0  0  0  0  0
    8.7981   -1.3018   60.8211 C   0  0  0  0  0  0  0  0  0  0  0  0
    8.6002   -2.4178   61.6555 C   0  0  0  0  0  0  0  0  0  0  0  0
    9.6428    0.3194   62.4716 C   0  0  0  0  0  0  0  0  0  0  0  0
    9.4561   -0.3204   63.7067 C   0  0  0  0  0  0  0  0  0  0  0  0
    8.6655    0.0992   61.3489 C   0  0  0  0  0  0  0  0  0  0  0  0
    7.8156   -1.1668   65.2716 C   0  0  0  0  0  0  0  0  0  0  0  0
    6.3303   -1.4958   65.2758 C   0  0  0  0  0  0  0  0  0  0  0  0
    6.6011   -2.6804   63.1015 C   0  0  0  0  0  0  0  0  0  0  0  0
    8.1071   -2.3561   63.1013 C   0  0  0  0  0  0  0  0  0  0  0  0
    4.6711   -3.2235   64.5892 C   0  0  0  0  0  0  0  0  0  0  0  0
   10.3273   -0.1106   64.7323 N   0  0  0  0  0  0  0  0  0  0  0  0
    8.3196   -1.1204   63.8925 N   0  0  0  0  0  0  0  0  0  0  0  0
    6.1067   -2.7820   64.5255 N   0  0  0  0  0  0  0  0  0  0  0  0
    6.6591   -3.5141   64.9928 H   0  0  0  0  0  0  0  0  0  0  0  0
  1  2  1  0  0  0
  1  4  2  0  0  0
  2  5  2  0  0  0
  3  6  2  0  0  0
  3  7  1  0  0  0
  4  8  1  0  0  0
  5  9  1  0  0  0
  6 10  1  0  0  0
  7 18  2  0  0  0
  8  9  2  0  0  0
  8 12  1  0  0  0
  9 16  1  0  0  0
 10 11  2  0  0  0
 10 12  1  0  0  0
 11 18  1  0  0  0
 11 19  1  0  0  0
 13 14  1  0  0  0
 13 19  1  0  0  0
 14 20  1  0  0  0
 15 16  1  0  0  0
 15 20  1  0  0  0
 16 19  1  0  0  0
 17 20  1  0  0  0
 20 21  1  0  0  0
M  CHG 1  20   1
M  END
> <minimizedAffinity>
-6.35823

> <CNNscore>
0.3172475100

> <CNNaffinity>
5.3863344193

> <CNN_VS>
1.7088011503

> <CNNaffinity_variance>
0.1563155502

$$$$



 21 24  0  0  0  0  0  0  0  0999 V2000
    8.5617   -0.5958   58.2175 C   0  0  0  0  0  0  0  0  0  0  0  0
    9.4027    0.3836   57.7072 C   0  0  0  0  0  0  0  0  0  0  0  0
    9.8356    0.1310   64.4532 C   0  0  0  0  0  0  0  0  0  0  0  0
    8.9409   -1.3085   59.3524 C   0  0  0  0  0  0  0  0  0  0  0  0
   10.6245    0.6408   58.3288 C   0  0  0  0  0  0  0  0  0  0  0  0
    9.6855   -0.7658   63.4075 C   0  0  0  0  0  0  0  0  0  0  0  0
   10.9569    0.9339   64.4472 C   0  0  0  0  0  0  0  0  0  0  0  0
   10.1692   -1.0543   59.9898 C   0  0  0  0  0  0  0  0  0  0  0  0
   11.0356   -0.0712   59.4763 C   0  0  0  0  0  0  0  0  0  0  0  0
   10.6501   -0.8313   62.3951 C   0  0  0  0  0  0  0  0  0  0  0  0
   11.7536    0.0343   62.4449 C   0  0  0  0  0  0  0  0  0  0  0  0
   10.4974   -1.7993   61.2533 C   0  0  0  0  0  0  0  0  0  0  0  0
   14.0921    0.2977   61.8802 C   0  0  0  0  0  0  0  0  0  0  0  0
   15.1208   -0.3937   60.9981 C   0  0  0  0  0  0  0  0  0  0  0  0
   13.4632   -0.4585   59.1402 C   0  0  0  0  0  0  0  0  0  0  0  0
   12.4241    0.2504   60.0295 C   0  0  0  0  0  0  0  0  0  0  0  0
   15.9055   -0.6032   58.6424 C   0  0  0  0  0  0  0  0  0  0  0  0
   11.9066    0.8999   63.4852 N   0  0  0  0  0  0  0  0  0  0  0  0
   12.7340   -0.0566   61.4465 N   0  0  0  0  0  0  0  0  0  0  0  0
   14.8539   -0.0421   59.5586 N   0  0  0  0  0  0  0  0  0  0  0  0
   14.9083    0.9823   59.4740 H   0  0  0  0  0  0  0  0  0  0  0  0
  1  2  1  0  0  0
  1  4  2  0  0  0
  2  5  2  0  0  0
  3  6  2  0  0  0
  3  7  1  0  0  0
  4  8  1  0  0  0
  5  9  1  0  0  0
  6 10  1  0  0  0
  7 18  2  0  0  0
  8  9  2  0  0  0
  8 12  1  0  0  0
  9 16  1  0  0  0
 10 11  2  0  0  0
 10 12  1  0  0  0
 11 18  1  0  0  0
 11 19  1  0  0  0
 13 14  1  0  0  0
 13 19  1  0  0  0
 14 20  1  0  0  0
 15 16  1  0  0  0
 15 20  1  0  0  0
 16 19  1  0  0  0
 17 20  1  0  0  0
 20 21  1  0  0  0
M  CHG 1  20   1
M  END
> <minimizedAffinity>
-6.16848

> <CNNscore>
0.3101476133

> <CNNaffinity>
5.8396334648

> <CNN_VS>
1.8111484051

> <CNNaffinity_variance>
0.4510092735

$$$$



 34 37  0  0  0  0  0  0  0  0999 V2000
   14.4957   -0.3664   61.4111 C   0  0  0  0  0  0  0  0  0  0  0  0
   13.3864   -0.3700   62.2567 C   0  0  0  0  0  0  0  0  0  0  0  0
   13.0335   -0.2201   59.4934 C   0  0  0  0  0  0  0  0  0  0  0  0
   11.9241   -0.2236   60.3389 C   0  0  0  0  0  0  0  0  0  0  0  0
   14.3193   -0.2914   60.0294 C   0  0  0  0  0  0  0  0  0  0  0  0
   12.1006   -0.2986   61.7206 C   0  0  0  0  0  0  0  0  0  0  0  0
    9.7350   -1.1539   59.4033 C   0  0  0  0  0  0  0  0  0  0  0  0
    8.6045   -0.4805   58.9029 C   0  0  0  0  0  0  0  0  0  0  0  0
   10.6007   -0.1506   59.7639 C   0  0  0  0  0  0  0  0  0  0  0  0
   10.4584    2.3603   59.6654 C   0  0  0  0  0  0  0  0  0  0  0  0
    8.7371    0.8480   58.9407 N   0  0  0  0  0  0  0  0  0  0  0  0
    9.9609    1.0175   59.4693 N   0  0  0  0  0  0  0  0  0  0  0  0
   16.1354    0.8171   58.6679 C   0  0  0  0  0  0  0  0  0  0  0  0
   15.4295   -0.2884   59.1845 N   0  0  0  0  0  0  0  0  0  0  0  0
   15.8473    1.9875   58.9087 O   0  0  0  0  0  0  0  0  0  0  0  0
   15.7779   -1.2118   58.9024 H   0  0  0  0  0  0  0  0  0  0  0  0
   18.3512    0.7180   55.6262 C   0  0  0  0  0  0  0  0  0  0  0  0
   17.2983    1.0368   56.4838 C   0  0  0  0  0  0  0  0  0  0  0  0
   19.3529   -0.1569   56.0469 C   0  0  0  0  0  0  0  0  0  0  0  0
   18.2488   -0.3941   58.1828 C   0  0  0  0  0  0  0  0  0  0  0  0
   17.2471    0.4808   57.7621 C   0  0  0  0  0  0  0  0  0  0  0  0
   19.3017   -0.7129   57.3252 C   0  0  0  0  0  0  0  0  0  0  0  0
   21.5119   -1.5355   57.0189 C   0  0  0  0  0  0  0  0  0  0  0  0
   20.2787   -1.5666   57.7359 O   0  0  0  0  0  0  0  0  0  0  0  0
   11.0289   -0.3043   62.5748 O   0  0  0  0  0  0  0  0  0  0  0  0
   10.6686    0.9401   63.1596 C   0  0  0  0  0  0  0  0  0  0  0  0
   10.8901    0.8797   64.6582 C   0  0  0  0  0  0  0  0  0  0  0  0
    9.5786   -0.9451   65.7508 C   0  0  0  0  0  0  0  0  0  0  0  0
    8.3972    0.8410   64.4875 C   0  0  0  0  0  0  0  0  0  0  0  0
    8.2677   -1.2143   66.4699 C   0  0  0  0  0  0  0  0  0  0  0  0
    7.1471    0.4791   65.2715 C   0  0  0  0  0  0  0  0  0  0  0  0
    9.6025    0.5069   65.3350 N   0  0  0  0  0  0  0  0  0  0  0  0
    7.1594   -0.9052   65.6235 O   0  0  0  0  0  0  0  0  0  0  0  0
    9.5448    1.0750   66.1917 H   0  0  0  0  0  0  0  0  0  0  0  0
 17 18  1  0  0  0
 17 19  2  0  0  0
 18 21  2  0  0  0
  1  2  2  0  0  0
  1  5  1  0  0  0
 19 22  1  0  0  0
  2  6  1  0  0  0
  7  8  1  0  0  0
  7  9  2  0  0  0
  3  4  1  0  0  0
  3  5  2  0  0  0
 20 21  1  0  0  0
 20 22  2  0  0  0
  8 11  2  0  0  0
  4  6  2  0  0  0
  4  9  1  0  0  0
 21 13  1  0  0  0
  5 14  1  0  0  0
 22 24  1  0  0  0
  6 25  1  0  0  0
  9 12  1  0  0  0
 13 14  1  0  0  0
 13 15  2  0  0  0
 28 30  1  0  0  0
 28 32  1  0  0  0
 29 31  1  0  0  0
 29 32  1  0  0  0
 30 33  1  0  0  0
 31 33  1  0  0  0
 10 12  1  0  0  0
 23 24  1  0  0  0
 27 26  1  0  0  0
 27 32  1  0  0  0
 26 25  1  0  0  0
 11 12  1  0  0  0
 14 16  1  0  0  0
 32 34  1  0  0  0
M  CHG 1  32   1
M  END
> <minimizedAffinity>
-9.68125

> <CNNscore>
0.5941931009

> <CNNaffinity>
6.7545862198

> <CNN_VS>
4.0135283470

> <CNNaffinity_variance>
0.1206826791

$$$$



 34 37  0  0  0  0  0  0  0  0999 V2000
    8.1216   -2.6910   60.2739 C   0  0  0  0  0  0  0  0  0  0  0  0
    7.3369   -3.1774   61.3194 C   0  0  0  0  0  0  0  0  0  0  0  0
    9.6453   -1.7120   61.8731 C   0  0  0  0  0  0  0  0  0  0  0  0
    8.8605   -2.1985   62.9187 C   0  0  0  0  0  0  0  0  0  0  0  0
    9.2759   -1.9583   60.5508 C   0  0  0  0  0  0  0  0  0  0  0  0
    7.7063   -2.9312   62.6418 C   0  0  0  0  0  0  0  0  0  0  0  0
    9.2101   -2.7365   65.3928 C   0  0  0  0  0  0  0  0  0  0  0  0
    9.7312   -1.9386   66.4290 C   0  0  0  0  0  0  0  0  0  0  0  0
    9.2595   -1.9314   64.2813 C   0  0  0  0  0  0  0  0  0  0  0  0
   10.0418    0.4308   63.9035 C   0  0  0  0  0  0  0  0  0  0  0  0
   10.0858   -0.7200   66.0127 N   0  0  0  0  0  0  0  0  0  0  0  0
    9.7870   -0.7463   64.7028 N   0  0  0  0  0  0  0  0  0  0  0  0
    9.8257   -0.3527   58.6797 C   0  0  0  0  0  0  0  0  0  0  0  0
   10.0600   -1.4718   59.5043 N   0  0  0  0  0  0  0  0  0  0  0  0
    8.8444    0.3804   58.7820 O   0  0  0  0  0  0  0  0  0  0  0  0
   10.9199   -1.9974   59.3095 H   0  0  0  0  0  0  0  0  0  0  0  0
   12.4484    1.3094   56.5514 C   0  0  0  0  0  0  0  0  0  0  0  0
   11.4942    1.0972   57.5464 C   0  0  0  0  0  0  0  0  0  0  0  0
   12.7418    0.2958   55.6390 C   0  0  0  0  0  0  0  0  0  0  0  0
   11.1269   -1.1420   56.7169 C   0  0  0  0  0  0  0  0  0  0  0  0
   10.8335   -0.1284   57.6293 C   0  0  0  0  0  0  0  0  0  0  0  0
   12.0811   -0.9299   55.7219 C   0  0  0  0  0  0  0  0  0  0  0  0
   13.6047   -2.6082   55.0023 C   0  0  0  0  0  0  0  0  0  0  0  0
   12.3671   -1.9189   54.8318 O   0  0  0  0  0  0  0  0  0  0  0  0
    6.9163   -3.4208   63.6491 O   0  0  0  0  0  0  0  0  0  0  0  0
    5.6239   -2.8454   63.7872 C   0  0  0  0  0  0  0  0  0  0  0  0
    5.6003   -1.9359   64.9999 C   0  0  0  0  0  0  0  0  0  0  0  0
    6.6816    0.3020   65.2579 C   0  0  0  0  0  0  0  0  0  0  0  0
    4.2678    0.1540   64.6804 C   0  0  0  0  0  0  0  0  0  0  0  0
    6.6627    1.7145   64.6988 C   0  0  0  0  0  0  0  0  0  0  0  0
    4.3735    1.5745   64.1516 C   0  0  0  0  0  0  0  0  0  0  0  0
    5.6209   -0.5044   64.5463 N   0  0  0  0  0  0  0  0  0  0  0  0
    5.3720    2.3028   64.8676 O   0  0  0  0  0  0  0  0  0  0  0  0
    5.8609   -0.5162   63.5452 H   0  0  0  0  0  0  0  0  0  0  0  0
 17 18  1  0  0  0
 17 19  2  0  0  0
 18 21  2  0  0  0
  1  2  2  0  0  0
  1  5  1  0  0  0
 19 22  1  0  0  0
  2  6  1  0  0  0
  7  8  1  0  0  0
  7  9  2  0  0  0
  3  4  1  0  0  0
  3  5  2  0  0  0
 20 21  1  0  0  0
 20 22  2  0  0  0
  8 11  2  0  0  0
  4  6  2  0  0  0
  4  9  1  0  0  0
 21 13  1  0  0  0
  5 14  1  0  0  0
 22 24  1  0  0  0
  6 25  1  0  0  0
  9 12  1  0  0  0
 13 14  1  0  0  0
 13 15  2  0  0  0
 28 30  1  0  0  0
 28 32  1  0  0  0
 29 31  1  0  0  0
 29 32  1  0  0  0
 30 33  1  0  0  0
 31 33  1  0  0  0
 10 12  1  0  0  0
 23 24  1  0  0  0
 27 26  1  0  0  0
 27 32  1  0  0  0
 26 25  1  0  0  0
 11 12  1  0  0  0
 14 16  1  0  0  0
 32 34  1  0  0  0
M  CHG 1  32   1
M  END
> <minimizedAffinity>
-8.03104

> <CNNscore>
0.5458308458

> <CNNaffinity>
6.5428094864

> <CNN_VS>
3.5712671280

> <CNNaffinity_variance>
0.1244922057

$$$$



 34 37  0  0  0  0  0  0  0  0999 V2000
   16.7648   -0.4830   58.5316 C   0  0  0  0  0  0  0  0  0  0  0  0
   15.6282   -0.5688   57.7277 C   0  0  0  0  0  0  0  0  0  0  0  0
   15.3754    0.0247   60.4419 C   0  0  0  0  0  0  0  0  0  0  0  0
   14.2387   -0.0612   59.6379 C   0  0  0  0  0  0  0  0  0  0  0  0
   16.6384   -0.1863   59.8888 C   0  0  0  0  0  0  0  0  0  0  0  0
   14.3651   -0.3579   58.2808 C   0  0  0  0  0  0  0  0  0  0  0  0
   12.2266   -0.6059   61.1171 C   0  0  0  0  0  0  0  0  0  0  0  0
   11.0375    0.1164   61.3316 C   0  0  0  0  0  0  0  0  0  0  0  0
   12.9397    0.1623   60.2296 C   0  0  0  0  0  0  0  0  0  0  0  0
   12.4750    2.3639   59.1020 C   0  0  0  0  0  0  0  0  0  0  0  0
   10.9940    1.2561   60.6365 N   0  0  0  0  0  0  0  0  0  0  0  0
   12.1647    1.2557   59.9766 N   0  0  0  0  0  0  0  0  0  0  0  0
   17.9831    0.6956   61.8368 C   0  0  0  0  0  0  0  0  0  0  0  0
   17.7759   -0.1003   60.6919 N   0  0  0  0  0  0  0  0  0  0  0  0
   17.1403    1.4601   62.3016 O   0  0  0  0  0  0  0  0  0  0  0  0
   18.5651   -0.6943   60.4127 H   0  0  0  0  0  0  0  0  0  0  0  0
   20.7237    0.2838   64.3845 C   0  0  0  0  0  0  0  0  0  0  0  0
   19.4551    0.3867   63.8138 C   0  0  0  0  0  0  0  0  0  0  0  0
   21.8598    0.3811   63.5810 C   0  0  0  0  0  0  0  0  0  0  0  0
   20.4586    0.6840   61.6363 C   0  0  0  0  0  0  0  0  0  0  0  0
   19.3225    0.5867   62.4397 C   0  0  0  0  0  0  0  0  0  0  0  0
   21.7273    0.5811   62.2069 C   0  0  0  0  0  0  0  0  0  0  0  0
   22.7156    0.2320   60.0722 C   0  0  0  0  0  0  0  0  0  0  0  0
   22.8356    0.6761   61.4228 O   0  0  0  0  0  0  0  0  0  0  0  0
   13.2658   -0.4480   57.4674 O   0  0  0  0  0  0  0  0  0  0  0  0
   13.5069   -0.6999   56.0895 C   0  0  0  0  0  0  0  0  0  0  0  0
   12.9818    0.4571   55.2625 C   0  0  0  0  0  0  0  0  0  0  0  0
   13.8012    1.6266   53.2119 C   0  0  0  0  0  0  0  0  0  0  0  0
   15.3908    0.3241   54.6113 C   0  0  0  0  0  0  0  0  0  0  0  0
   15.0022    2.3729   52.6562 C   0  0  0  0  0  0  0  0  0  0  0  0
   16.5098    1.1373   53.9828 C   0  0  0  0  0  0  0  0  0  0  0  0
   14.1352    1.1642   54.6106 N   0  0  0  0  0  0  0  0  0  0  0  0
   16.1577    1.5332   52.6564 O   0  0  0  0  0  0  0  0  0  0  0  0
   14.3244    2.0030   55.1768 H   0  0  0  0  0  0  0  0  0  0  0  0
 17 18  1  0  0  0
 17 19  2  0  0  0
 18 21  2  0  0  0
  1  2  2  0  0  0
  1  5  1  0  0  0
 19 22  1  0  0  0
  2  6  1  0  0  0
  7  8  1  0  0  0
  7  9  2  0  0  0
  3  4  1  0  0  0
  3  5  2  0  0  0
 20 21  1  0  0  0
 20 22  2  0  0  0
  8 11  2  0  0  0
  4  6  2  0  0  0
  4  9  1  0  0  0
 21 13  1  0  0  0
  5 14  1  0  0  0
 22 24  1  0  0  0
  6 25  1  0  0  0
  9 12  1  0  0  0
 13 14  1  0  0  0
 13 15  2  0  0  0
 28 30  1  0  0  0
 28 32  1  0  0  0
 29 31  1  0  0  0
 29 32  1  0  0  0
 30 33  1  0  0  0
 31 33  1  0  0  0
 10 12  1  0  0  0
 23 24  1  0  0  0
 27 26  1  0  0  0
 27 32  1  0  0  0
 26 25  1  0  0  0
 11 12  1  0  0  0
 14 16  1  0  0  0
 32 34  1  0  0  0
M  CHG 1  32   1
M  END
> <minimizedAffinity>
7.22837

> <CNNscore>
0.4700460136

> <CNNaffinity>
6.4761629105

> <CNN_VS>
3.0440945625

> <CNNaffinity_variance>
0.4751253724

$$$$



 34 37  0  0  0  0  0  0  0  0999 V2000
   12.0909   -0.9613   56.5361 C   0  0  0  0  0  0  0  0  0  0  0  0
   10.7217   -1.0305   56.7930 C   0  0  0  0  0  0  0  0  0  0  0  0
   12.3428    0.6557   58.3135 C   0  0  0  0  0  0  0  0  0  0  0  0
   10.9735    0.5865   58.5705 C   0  0  0  0  0  0  0  0  0  0  0  0
   12.9015   -0.1182   57.2964 C   0  0  0  0  0  0  0  0  0  0  0  0
   10.1630   -0.2566   57.8102 C   0  0  0  0  0  0  0  0  0  0  0  0
    9.4563    2.3804   59.5771 C   0  0  0  0  0  0  0  0  0  0  0  0
    9.3223    2.8099   60.9110 C   0  0  0  0  0  0  0  0  0  0  0  0
   10.4140    1.3973   59.6274 C   0  0  0  0  0  0  0  0  0  0  0  0
   11.7625    0.4059   61.5071 C   0  0  0  0  0  0  0  0  0  0  0  0
   10.1302    2.1532   61.7477 N   0  0  0  0  0  0  0  0  0  0  0  0
   10.7809    1.3011   60.9375 N   0  0  0  0  0  0  0  0  0  0  0  0
   15.3427   -0.2346   57.9348 C   0  0  0  0  0  0  0  0  0  0  0  0
   14.2708   -0.0494   57.0383 N   0  0  0  0  0  0  0  0  0  0  0  0
   15.2011   -0.4955   59.1276 O   0  0  0  0  0  0  0  0  0  0  0  0
   14.5318    0.1640   56.0687 H   0  0  0  0  0  0  0  0  0  0  0  0
   18.1287    0.9658   55.7058 C   0  0  0  0  0  0  0  0  0  0  0  0
   16.8590    0.7932   56.2571 C   0  0  0  0  0  0  0  0  0  0  0  0
   19.2226    0.2929   56.2501 C   0  0  0  0  0  0  0  0  0  0  0  0
   17.7772   -0.7250   57.8969 C   0  0  0  0  0  0  0  0  0  0  0  0
   16.6833   -0.0520   57.3526 C   0  0  0  0  0  0  0  0  0  0  0  0
   19.0469   -0.5524   57.3457 C   0  0  0  0  0  0  0  0  0  0  0  0
   21.3321   -1.1759   57.1347 C   0  0  0  0  0  0  0  0  0  0  0  0
   20.1140   -1.2092   57.8768 O   0  0  0  0  0  0  0  0  0  0  0  0
    8.8148   -0.3442   58.0404 O   0  0  0  0  0  0  0  0  0  0  0  0
    8.2024   -1.6025   57.7910 C   0  0  0  0  0  0  0  0  0  0  0  0
    8.8094   -2.6517   58.7016 C   0  0  0  0  0  0  0  0  0  0  0  0
    9.4622   -2.1737   61.0658 C   0  0  0  0  0  0  0  0  0  0  0  0
    7.4576   -3.5668   60.5938 C   0  0  0  0  0  0  0  0  0  0  0  0
    8.8750   -1.9096   62.4419 C   0  0  0  0  0  0  0  0  0  0  0  0
    6.9743   -3.2311   61.9945 C   0  0  0  0  0  0  0  0  0  0  0  0
    8.3246   -2.4300   60.1055 N   0  0  0  0  0  0  0  0  0  0  0  0
    8.0828   -3.0185   62.8697 O   0  0  0  0  0  0  0  0  0  0  0  0
    7.7403   -1.5826   60.0849 H   0  0  0  0  0  0  0  0  0  0  0  0
 17 18  1  0  0  0
 17 19  2  0  0  0
 18 21  2  0  0  0
  1  2  2  0  0  0
  1  5  1  0  0  0
 19 22  1  0  0  0
  2  6  1  0  0  0
  7  8  1  0  0  0
  7  9  2  0  0  0
  3  4  1  0  0  0
  3  5  2  0  0  0
 20 21  1  0  0  0
 20 22  2  0  0  0
  8 11  2  0  0  0
  4  6  2  0  0  0
  4  9  1  0  0  0
 21 13  1  0  0  0
  5 14  1  0  0  0
 22 24  1  0  0  0
  6 25  1  0  0  0
  9 12  1  0  0  0
 13 14  1  0  0  0
 13 15  2  0  0  0
 28 30  1  0  0  0
 28 32  1  0  0  0
 29 31  1  0  0  0
 29 32  1  0  0  0
 30 33  1  0  0  0
 31 33  1  0  0  0
 10 12  1  0  0  0
 23 24  1  0  0  0
 27 26  1  0  0  0
 27 32  1  0  0  0
 26 25  1  0  0  0
 11 12  1  0  0  0
 14 16  1  0  0  0
 32 34  1  0  0  0
M  CHG 1  32   1
M  END
> <minimizedAffinity>
-8.74414

> <CNNscore>
0.4221343696

> <CNNaffinity>
6.4920682907

> <CNN_VS>
2.7405252457

> <CNNaffinity_variance>
0.2454223335

$$$$



 34 37  0  0  0  0  0  0  0  0999 V2000
   14.3732   -0.6762   60.9318 C   0  0  0  0  0  0  0  0  0  0  0  0
   13.4818   -0.6185   62.0029 C   0  0  0  0  0  0  0  0  0  0  0  0
   12.8811    0.6949   59.6161 C   0  0  0  0  0  0  0  0  0  0  0  0
   11.9896    0.7526   60.6874 C   0  0  0  0  0  0  0  0  0  0  0  0
   14.0729   -0.0194   59.7383 C   0  0  0  0  0  0  0  0  0  0  0  0
   12.2899    0.0958   61.8807 C   0  0  0  0  0  0  0  0  0  0  0  0
   10.4346    2.7627   60.9609 C   0  0  0  0  0  0  0  0  0  0  0  0
    9.1054    2.9449   60.5347 C   0  0  0  0  0  0  0  0  0  0  0  0
   10.7598    1.4965   60.5401 C   0  0  0  0  0  0  0  0  0  0  0  0
    9.4863   -0.2801   59.2925 C   0  0  0  0  0  0  0  0  0  0  0  0
    8.6194    1.8795   59.8922 N   0  0  0  0  0  0  0  0  0  0  0  0
    9.6488    1.0159   59.9115 N   0  0  0  0  0  0  0  0  0  0  0  0
   16.0950    0.7284   58.4219 C   0  0  0  0  0  0  0  0  0  0  0  0
   14.9651   -0.0780   58.6673 N   0  0  0  0  0  0  0  0  0  0  0  0
   16.4606    1.6392   59.1619 O   0  0  0  0  0  0  0  0  0  0  0  0
   14.7738   -0.8033   57.9665 H   0  0  0  0  0  0  0  0  0  0  0  0
   16.7786   -0.2150   54.8422 C   0  0  0  0  0  0  0  0  0  0  0  0
   16.0997    0.0622   56.0288 C   0  0  0  0  0  0  0  0  0  0  0  0
   18.1694   -0.1190   54.7957 C   0  0  0  0  0  0  0  0  0  0  0  0
   18.2023    0.5317   57.1222 C   0  0  0  0  0  0  0  0  0  0  0  0
   16.8115    0.4357   57.1687 C   0  0  0  0  0  0  0  0  0  0  0  0
   18.8812    0.2545   55.9357 C   0  0  0  0  0  0  0  0  0  0  0  0
   20.9809   -0.6183   56.6324 C   0  0  0  0  0  0  0  0  0  0  0  0
   20.2382    0.3481   55.8906 O   0  0  0  0  0  0  0  0  0  0  0  0
   11.4323    0.1352   62.9491 O   0  0  0  0  0  0  0  0  0  0  0  0
   10.4207   -0.8622   62.9960 C   0  0  0  0  0  0  0  0  0  0  0  0
    9.0720   -0.2069   63.2202 C   0  0  0  0  0  0  0  0  0  0  0  0
    8.3259    0.7108   65.4213 C   0  0  0  0  0  0  0  0  0  0  0  0
    9.5267   -1.4644   65.3314 C   0  0  0  0  0  0  0  0  0  0  0  0
    7.7908    0.2860   66.7783 C   0  0  0  0  0  0  0  0  0  0  0  0
    8.9300   -1.7766   66.6934 C   0  0  0  0  0  0  0  0  0  0  0  0
    8.5867   -0.5322   64.6036 N   0  0  0  0  0  0  0  0  0  0  0  0
    8.7214   -0.5748   67.4366 O   0  0  0  0  0  0  0  0  0  0  0  0
    7.6887   -1.0235   64.4927 H   0  0  0  0  0  0  0  0  0  0  0  0
 17 18  1  0  0  0
 17 19  2  0  0  0
 18 21  2  0  0  0
  1  2  2  0  0  0
  1  5  1  0  0  0
 19 22  1  0  0  0
  2  6  1  0  0  0
  7  8  1  0  0  0
  7  9  2  0  0  0
  3  4  1  0  0  0
  3  5  2  0  0  0
 20 21  1  0  0  0
 20 22  2  0  0  0
  8 11  2  0  0  0
  4  6  2  0  0  0
  4  9  1  0  0  0
 21 13  1  0  0  0
  5 14  1  0  0  0
 22 24  1  0  0  0
  6 25  1  0  0  0
  9 12  1  0  0  0
 13 14  1  0  0  0
 13 15  2  0  0  0
 28 30  1  0  0  0
 28 32  1  0  0  0
 29 31  1  0  0  0
 29 32  1  0  0  0
 30 33  1  0  0  0
 31 33  1  0  0  0
 10 12  1  0  0  0
 23 24  1  0  0  0
 27 26  1  0  0  0
 27 32  1  0  0  0
 26 25  1  0  0  0
 11 12  1  0  0  0
 14 16  1  0  0  0
 32 34  1  0  0  0
M  CHG 1  32   1
M  END
> <minimizedAffinity>
-9.57857

> <CNNscore>
0.3982972205

> <CNNaffinity>
6.5791196823

> <CNN_VS>
2.6204450130

> <CNNaffinity_variance>
0.0567535944

$$$$



 34 37  0  0  0  0  0  0  0  0999 V2000
   14.7378    0.7633   59.3276 C   0  0  0  0  0  0  0  0  0  0  0  0
   15.6777    1.1131   58.3582 C   0  0  0  0  0  0  0  0  0  0  0  0
   13.2726   -0.0816   57.6023 C   0  0  0  0  0  0  0  0  0  0  0  0
   14.2126    0.2682   56.6328 C   0  0  0  0  0  0  0  0  0  0  0  0
   13.5352    0.1659   58.9496 C   0  0  0  0  0  0  0  0  0  0  0  0
   15.4151    0.8656   57.0108 C   0  0  0  0  0  0  0  0  0  0  0  0
   13.6849    0.8753   54.2066 C   0  0  0  0  0  0  0  0  0  0  0  0
   13.4619    0.0443   53.0924 C   0  0  0  0  0  0  0  0  0  0  0  0
   13.9209    0.0049   55.2424 C   0  0  0  0  0  0  0  0  0  0  0  0
   13.9978   -2.5062   55.3938 C   0  0  0  0  0  0  0  0  0  0  0  0
   13.5487   -1.2543   53.3922 N   0  0  0  0  0  0  0  0  0  0  0  0
   13.8289   -1.2459   54.7064 N   0  0  0  0  0  0  0  0  0  0  0  0
   11.4123    0.4938   60.2789 C   0  0  0  0  0  0  0  0  0  0  0  0
   12.5956   -0.1832   59.9200 N   0  0  0  0  0  0  0  0  0  0  0  0
   11.0344    1.5386   59.7532 O   0  0  0  0  0  0  0  0  0  0  0  0
   12.7915   -1.0459   60.4407 H   0  0  0  0  0  0  0  0  0  0  0  0
    9.8499   -0.0536   63.6597 C   0  0  0  0  0  0  0  0  0  0  0  0
   10.5701    0.5267   62.6156 C   0  0  0  0  0  0  0  0  0  0  0  0
    9.2114   -1.2792   63.4699 C   0  0  0  0  0  0  0  0  0  0  0  0
   10.0133   -1.3441   61.1918 C   0  0  0  0  0  0  0  0  0  0  0  0
   10.6518   -0.1185   61.3816 C   0  0  0  0  0  0  0  0  0  0  0  0
    9.2931   -1.9244   62.2359 C   0  0  0  0  0  0  0  0  0  0  0  0
    7.5913   -3.1528   61.1176 C   0  0  0  0  0  0  0  0  0  0  0  0
    8.6704   -3.1202   62.0505 O   0  0  0  0  0  0  0  0  0  0  0  0
   16.3563    1.2201   56.0797 O   0  0  0  0  0  0  0  0  0  0  0  0
   17.7147    1.1861   56.4966 C   0  0  0  0  0  0  0  0  0  0  0  0
   18.4948    0.2375   55.6077 C   0  0  0  0  0  0  0  0  0  0  0  0
   18.8923   -0.6514   57.9090 C   0  0  0  0  0  0  0  0  0  0  0  0
   20.8060   -0.3572   56.3492 C   0  0  0  0  0  0  0  0  0  0  0  0
   19.7573   -1.6318   58.6829 C   0  0  0  0  0  0  0  0  0  0  0  0
   21.5723   -1.3524   57.2041 C   0  0  0  0  0  0  0  0  0  0  0  0
   19.3322   -0.6685   56.4640 N   0  0  0  0  0  0  0  0  0  0  0  0
   21.1377   -1.2849   58.5630 O   0  0  0  0  0  0  0  0  0  0  0  0
   19.1897   -1.6242   56.1085 H   0  0  0  0  0  0  0  0  0  0  0  0
 17 18  1  0  0  0
 17 19  2  0  0  0
 18 21  2  0  0  0
  1  2  2  0  0  0
  1  5  1  0  0  0
 19 22  1  0  0  0
  2  6  1  0  0  0
  7  8  1  0  0  0
  7  9  2  0  0  0
  3  4  1  0  0  0
  3  5  2  0  0  0
 20 21  1  0  0  0
 20 22  2  0  0  0
  8 11  2  0  0  0
  4  6  2  0  0  0
  4  9  1  0  0  0
 21 13  1  0  0  0
  5 14  1  0  0  0
 22 24  1  0  0  0
  6 25  1  0  0  0
  9 12  1  0  0  0
 13 14  1  0  0  0
 13 15  2  0  0  0
 28 30  1  0  0  0
 28 32  1  0  0  0
 29 31  1  0  0  0
 29 32  1  0  0  0
 30 33  1  0  0  0
 31 33  1  0  0  0
 10 12  1  0  0  0
 23 24  1  0  0  0
 27 26  1  0  0  0
 27 32  1  0  0  0
 26 25  1  0  0  0
 11 12  1  0  0  0
 14 16  1  0  0  0
 32 34  1  0  0  0
M  CHG 1  32   1
M  END
> <minimizedAffinity>
-8.83965

> <CNNscore>
0.3540314734

> <CNNaffinity>
6.5043082237

> <CNN_VS>
2.3027298450

> <CNNaffinity_variance>
0.2748261690

$$$$



 34 37  0  0  0  0  0  0  0  0999 V2000
   13.5103   -0.4061   62.2382 C   0  0  0  0  0  0  0  0  0  0  0  0
   14.5368   -0.4435   61.2946 C   0  0  0  0  0  0  0  0  0  0  0  0
   11.8956   -0.0888   60.4692 C   0  0  0  0  0  0  0  0  0  0  0  0
   12.9221   -0.1263   59.5255 C   0  0  0  0  0  0  0  0  0  0  0  0
   12.1896   -0.2287   61.8255 C   0  0  0  0  0  0  0  0  0  0  0  0
   14.2427   -0.3036   59.9382 C   0  0  0  0  0  0  0  0  0  0  0  0
   13.2841    0.6545   57.1187 C   0  0  0  0  0  0  0  0  0  0  0  0
   12.4830    0.4702   55.9759 C   0  0  0  0  0  0  0  0  0  0  0  0
   12.5968    0.0221   58.1256 C   0  0  0  0  0  0  0  0  0  0  0  0
   10.4187   -1.2372   58.1923 C   0  0  0  0  0  0  0  0  0  0  0  0
   11.3717   -0.2251   56.2320 N   0  0  0  0  0  0  0  0  0  0  0  0
   11.4697   -0.4833   57.5472 N   0  0  0  0  0  0  0  0  0  0  0  0
   10.0988    0.7270   62.8724 C   0  0  0  0  0  0  0  0  0  0  0  0
   11.1637   -0.1910   62.7703 N   0  0  0  0  0  0  0  0  0  0  0  0
    9.9271    1.6662   62.0983 O   0  0  0  0  0  0  0  0  0  0  0  0
   11.1874   -0.9282   63.4842 H   0  0  0  0  0  0  0  0  0  0  0  0
    7.2946    1.1996   65.3390 C   0  0  0  0  0  0  0  0  0  0  0  0
    8.1467    1.4005   64.2531 C   0  0  0  0  0  0  0  0  0  0  0  0
    7.4946    0.1132   66.1908 C   0  0  0  0  0  0  0  0  0  0  0  0
    9.3988   -0.5714   64.8706 C   0  0  0  0  0  0  0  0  0  0  0  0
    9.1987    0.5150   64.0188 C   0  0  0  0  0  0  0  0  0  0  0  0
    8.5466   -0.7723   65.9565 C   0  0  0  0  0  0  0  0  0  0  0  0
    9.9683   -2.5485   66.6490 C   0  0  0  0  0  0  0  0  0  0  0  0
    8.7421   -1.8322   66.7875 O   0  0  0  0  0  0  0  0  0  0  0  0
   15.2710   -0.3438   59.0330 O   0  0  0  0  0  0  0  0  0  0  0  0
   16.5788   -0.1091   59.5379 C   0  0  0  0  0  0  0  0  0  0  0  0
   17.4937   -1.2452   59.1248 C   0  0  0  0  0  0  0  0  0  0  0  0
   18.3103   -0.3447   56.9416 C   0  0  0  0  0  0  0  0  0  0  0  0
   19.8623   -1.6092   58.4161 C   0  0  0  0  0  0  0  0  0  0  0  0
   19.5360    0.2576   56.2761 C   0  0  0  0  0  0  0  0  0  0  0  0
   21.0080   -0.9419   57.6739 C   0  0  0  0  0  0  0  0  0  0  0  0
   18.6657   -0.6882   58.3690 N   0  0  0  0  0  0  0  0  0  0  0  0
   20.6328   -0.6561   56.3257 O   0  0  0  0  0  0  0  0  0  0  0  0
   18.9311    0.1875   58.8410 H   0  0  0  0  0  0  0  0  0  0  0  0
 17 18  1  0  0  0
 17 19  2  0  0  0
 18 21  2  0  0  0
  1  2  2  0  0  0
  1  5  1  0  0  0
 19 22  1  0  0  0
  2  6  1  0  0  0
  7  8  1  0  0  0
  7  9  2  0  0  0
  3  4  1  0  0  0
  3  5  2  0  0  0
 20 21  1  0  0  0
 20 22  2  0  0  0
  8 11  2  0  0  0
  4  6  2  0  0  0
  4  9  1  0  0  0
 21 13  1  0  0  0
  5 14  1  0  0  0
 22 24  1  0  0  0
  6 25  1  0  0  0
  9 12  1  0  0  0
 13 14  1  0  0  0
 13 15  2  0  0  0
 28 30  1  0  0  0
 28 32  1  0  0  0
 29 31  1  0  0  0
 29 32  1  0  0  0
 30 33  1  0  0  0
 31 33  1  0  0  0
 10 12  1  0  0  0
 23 24  1  0  0  0
 27 26  1  0  0  0
 27 32  1  0  0  0
 26 25  1  0  0  0
 11 12  1  0  0  0
 14 16  1  0  0  0
 32 34  1  0  0  0
M  CHG 1  32   1
M  END
> <minimizedAffinity>
-9.32028

> <CNNscore>
0.3023751378

> <CNNaffinity>
6.3664202690

> <CNN_VS>
1.9250471592

> <CNNaffinity_variance>
0.1457941234

$$$$



 34 37  0  0  0  0  0  0  0  0999 V2000
    9.0471   -1.5939   64.1200 C   0  0  0  0  0  0  0  0  0  0  0  0
   10.1558   -0.7886   63.8599 C   0  0  0  0  0  0  0  0  0  0  0  0
    8.4181   -1.4808   61.7901 C   0  0  0  0  0  0  0  0  0  0  0  0
    9.5269   -0.6754   61.5298 C   0  0  0  0  0  0  0  0  0  0  0  0
    8.1782   -1.9401   63.0851 C   0  0  0  0  0  0  0  0  0  0  0  0
   10.3957   -0.3293   62.5647 C   0  0  0  0  0  0  0  0  0  0  0  0
   10.2360   -0.8779   59.0825 C   0  0  0  0  0  0  0  0  0  0  0  0
   10.2415    0.0873   58.0577 C   0  0  0  0  0  0  0  0  0  0  0  0
    9.7569   -0.2087   60.1819 C   0  0  0  0  0  0  0  0  0  0  0  0
    8.9982    2.1618   60.5556 C   0  0  0  0  0  0  0  0  0  0  0  0
    9.8006    1.2789   58.4694 N   0  0  0  0  0  0  0  0  0  0  0  0
    9.5135    1.0669   59.7650 N   0  0  0  0  0  0  0  0  0  0  0  0
    5.9126   -2.4311   64.0884 C   0  0  0  0  0  0  0  0  0  0  0  0
    7.0693   -2.7453   63.3465 N   0  0  0  0  0  0  0  0  0  0  0  0
    5.7209   -1.3453   64.6317 O   0  0  0  0  0  0  0  0  0  0  0  0
    7.0997   -3.6900   62.9462 H   0  0  0  0  0  0  0  0  0  0  0  0
    3.3432   -4.7672   65.5418 C   0  0  0  0  0  0  0  0  0  0  0  0
    4.2694   -3.7310   65.4230 C   0  0  0  0  0  0  0  0  0  0  0  0
    3.0821   -5.5976   64.4518 C   0  0  0  0  0  0  0  0  0  0  0  0
    4.6733   -4.3554   63.1242 C   0  0  0  0  0  0  0  0  0  0  0  0
    4.9343   -3.5250   64.2142 C   0  0  0  0  0  0  0  0  0  0  0  0
    3.7471   -5.3916   63.2430 C   0  0  0  0  0  0  0  0  0  0  0  0
    2.1337   -6.5768   61.9593 C   0  0  0  0  0  0  0  0  0  0  0  0
    3.4926   -6.2017   62.1795 O   0  0  0  0  0  0  0  0  0  0  0  0
   11.4924    0.4608   62.3379 O   0  0  0  0  0  0  0  0  0  0  0  0
   12.7661   -0.1473   62.5058 C   0  0  0  0  0  0  0  0  0  0  0  0
   13.2201   -0.7461   61.1890 C   0  0  0  0  0  0  0  0  0  0  0  0
   13.5929    0.8339   59.2894 C   0  0  0  0  0  0  0  0  0  0  0  0
   15.4996   -0.4756   60.2013 C   0  0  0  0  0  0  0  0  0  0  0  0
   14.6148    1.8021   58.7179 C   0  0  0  0  0  0  0  0  0  0  0  0
   16.4231    0.5600   59.5821 C   0  0  0  0  0  0  0  0  0  0  0  0
   14.1840    0.1935   60.5233 N   0  0  0  0  0  0  0  0  0  0  0  0
   15.8320    1.1212   58.4092 O   0  0  0  0  0  0  0  0  0  0  0  0
   14.3771    0.9453   61.1997 H   0  0  0  0  0  0  0  0  0  0  0  0
 17 18  1  0  0  0
 17 19  2  0  0  0
 18 21  2  0  0  0
  1  2  2  0  0  0
  1  5  1  0  0  0
 19 22  1  0  0  0
  2  6  1  0  0  0
  7  8  1  0  0  0
  7  9  2  0  0  0
  3  4  1  0  0  0
  3  5  2  0  0  0
 20 21  1  0  0  0
 20 22  2  0  0  0
  8 11  2  0  0  0
  4  6  2  0  0  0
  4  9  1  0  0  0
 21 13  1  0  0  0
  5 14  1  0  0  0
 22 24  1  0  0  0
  6 25  1  0  0  0
  9 12  1  0  0  0
 13 14  1  0  0  0
 13 15  2  0  0  0
 28 30  1  0  0  0
 28 32  1  0  0  0
 29 31  1  0  0  0
 29 32  1  0  0  0
 30 33  1  0  0  0
 31 33  1  0  0  0
 10 12  1  0  0  0
 23 24  1  0  0  0
 27 26  1  0  0  0
 27 32  1  0  0  0
 26 25  1  0  0  0
 11 12  1  0  0  0
 14 16  1  0  0  0
 32 34  1  0  0  0
M  CHG 1  32   1
M  END
> <minimizedAffinity>
-7.40243

> <CNNscore>
0.2958628833

> <CNNaffinity>
6.4269838333

> <CNN_VS>
1.9015059471

> <CNNaffinity_variance>
0.2002712041

$$$$



 34 37  0  0  0  0  0  0  0  0999 V2000
    7.7509   -1.9764   59.2430 C   0  0  0  0  0  0  0  0  0  0  0  0
    7.6556   -2.4228   57.9250 C   0  0  0  0  0  0  0  0  0  0  0  0
    9.8294   -0.8632   58.7159 C   0  0  0  0  0  0  0  0  0  0  0  0
    9.7342   -1.3096   57.3977 C   0  0  0  0  0  0  0  0  0  0  0  0
    8.8378   -1.1966   59.6385 C   0  0  0  0  0  0  0  0  0  0  0  0
    8.6473   -2.0895   57.0024 C   0  0  0  0  0  0  0  0  0  0  0  0
   11.0652   -1.4779   55.2222 C   0  0  0  0  0  0  0  0  0  0  0  0
   12.1769   -0.7359   54.7801 C   0  0  0  0  0  0  0  0  0  0  0  0
   10.7725   -0.9548   56.4578 C   0  0  0  0  0  0  0  0  0  0  0  0
   11.8039    0.8821   57.8349 C   0  0  0  0  0  0  0  0  0  0  0  0
   12.5639    0.1885   55.6632 N   0  0  0  0  0  0  0  0  0  0  0  0
   11.6906    0.0308   56.6723 N   0  0  0  0  0  0  0  0  0  0  0  0
   10.0900   -0.5697   61.7408 C   0  0  0  0  0  0  0  0  0  0  0  0
    8.9323   -0.7509   60.9571 N   0  0  0  0  0  0  0  0  0  0  0  0
   11.2304   -0.7938   61.3407 O   0  0  0  0  0  0  0  0  0  0  0  0
    8.0426   -0.5254   61.4167 H   0  0  0  0  0  0  0  0  0  0  0  0
   10.4690    1.2303   65.0253 C   0  0  0  0  0  0  0  0  0  0  0  0
   10.7007    0.8064   63.7167 C   0  0  0  0  0  0  0  0  0  0  0  0
    9.3823    0.7258   65.7398 C   0  0  0  0  0  0  0  0  0  0  0  0
    8.7589   -0.6262   63.8370 C   0  0  0  0  0  0  0  0  0  0  0  0
    9.8456   -0.1217   63.1225 C   0  0  0  0  0  0  0  0  0  0  0  0
    8.5273   -0.2023   65.1455 C   0  0  0  0  0  0  0  0  0  0  0  0
    6.4241   -1.3110   65.0885 C   0  0  0  0  0  0  0  0  0  0  0  0
    7.4670   -0.6948   65.8424 O   0  0  0  0  0  0  0  0  0  0  0  0
    8.5283   -2.5421   55.7142 O   0  0  0  0  0  0  0  0  0  0  0  0
    7.3979   -3.3526   55.4215 C   0  0  0  0  0  0  0  0  0  0  0  0
    6.4700   -2.6087   54.4812 C   0  0  0  0  0  0  0  0  0  0  0  0
    5.5344   -4.9228   54.5990 C   0  0  0  0  0  0  0  0  0  0  0  0
    5.2116   -3.5615   52.5437 C   0  0  0  0  0  0  0  0  0  0  0  0
    4.3485   -5.7609   54.1526 C   0  0  0  0  0  0  0  0  0  0  0  0
    4.0427   -4.4703   52.2031 C   0  0  0  0  0  0  0  0  0  0  0  0
    5.3644   -3.5273   54.0463 N   0  0  0  0  0  0  0  0  0  0  0  0
    4.2579   -5.7815   52.7272 O   0  0  0  0  0  0  0  0  0  0  0  0
    4.4924   -3.1440   54.4369 H   0  0  0  0  0  0  0  0  0  0  0  0
 17 18  1  0  0  0
 17 19  2  0  0  0
 18 21  2  0  0  0
  1  2  2  0  0  0
  1  5  1  0  0  0
 19 22  1  0  0  0
  2  6  1  0  0  0
  7  8  1  0  0  0
  7  9  2  0  0  0
  3  4  1  0  0  0
  3  5  2  0  0  0
 20 21  1  0  0  0
 20 22  2  0  0  0
  8 11  2  0  0  0
  4  6  2  0  0  0
  4  9  1  0  0  0
 21 13  1  0  0  0
  5 14  1  0  0  0
 22 24  1  0  0  0
  6 25  1  0  0  0
  9 12  1  0  0  0
 13 14  1  0  0  0
 13 15  2  0  0  0
 28 30  1  0  0  0
 28 32  1  0  0  0
 29 31  1  0  0  0
 29 32  1  0  0  0
 30 33  1  0  0  0
 31 33  1  0  0  0
 10 12  1  0  0  0
 23 24  1  0  0  0
 27 26  1  0  0  0
 27 32  1  0  0  0
 26 25  1  0  0  0
 11 12  1  0  0  0
 14 16  1  0  0  0
 32 34  1  0  0  0
M  CHG 1  32   1
M  END
> <minimizedAffinity>
-4.36249

> <CNNscore>
0.2896504402

> <CNNaffinity>
5.5964975357

> <CNN_VS>
1.6210279465

> <CNNaffinity_variance>
0.0877893418

$$$$



 30 34  0  0  0  0  0  0  0  0999 V2000
   14.7715    1.3927   58.7145 C   0  0  0  0  0  0  0  0  0  0  0  0
   15.7625   -0.7551   59.5487 C   0  0  0  0  0  0  0  0  0  0  0  0
   13.5265    0.8443   59.3984 C   0  0  0  0  0  0  0  0  0  0  0  0
   15.2660   -0.2417   60.8944 C   0  0  0  0  0  0  0  0  0  0  0  0
   15.7697    0.3307   58.5648 N   0  0  0  0  0  0  0  0  0  0  0  0
   13.8707    0.3298   60.7770 N   0  0  0  0  0  0  0  0  0  0  0  0
   13.8311    1.1636   61.4229 H   0  0  0  0  0  0  0  0  0  0  0  0
   19.8215   -1.5197   58.6443 C   0  0  0  0  0  0  0  0  0  0  0  0
   20.5426   -1.3618   57.4658 C   0  0  0  0  0  0  0  0  0  0  0  0
   18.5325   -0.9909   58.7656 C   0  0  0  0  0  0  0  0  0  0  0  0
   19.9974   -0.6736   56.3792 C   0  0  0  0  0  0  0  0  0  0  0  0
   17.9566   -0.2904   57.6830 C   0  0  0  0  0  0  0  0  0  0  0  0
   18.7034   -0.1470   56.5116 C   0  0  0  0  0  0  0  0  0  0  0  0
   16.6852    0.3480   57.5170 C   0  0  0  0  0  0  0  0  0  0  0  0
   16.4353    0.9363   56.3518 N   0  0  0  0  0  0  0  0  0  0  0  0
   17.7601    0.7393   55.3779 S   0  0  0  0  0  0  0  0  0  0  0  0
   12.8137   -0.6057   61.2972 C   0  0  0  0  0  0  0  0  0  0  0  0
   11.4988    0.1397   61.5023 C   0  0  0  0  0  0  0  0  0  0  0  0
    9.7499   -1.6251   61.5655 C   0  0  0  0  0  0  0  0  0  0  0  0
    9.2692   -1.1444   64.3229 C   0  0  0  0  0  0  0  0  0  0  0  0
    8.8025   -2.3495   62.2624 C   0  0  0  0  0  0  0  0  0  0  0  0
   10.4676   -0.6457   62.2596 C   0  0  0  0  0  0  0  0  0  0  0  0
    8.5758   -2.1044   63.6144 C   0  0  0  0  0  0  0  0  0  0  0  0
   10.2290   -0.4076   63.6263 C   0  0  0  0  0  0  0  0  0  0  0  0
    7.1162   -3.7958   63.0653 C   0  0  0  0  0  0  0  0  0  0  0  0
    7.8970   -3.4436   61.7940 C   0  0  0  0  0  0  0  0  0  0  0  0
    7.5827   -2.9570   64.0835 N   0  0  0  0  0  0  0  0  0  0  0  0
    6.2511   -4.6540   63.1476 O   0  0  0  0  0  0  0  0  0  0  0  0
   11.1140    0.8039   64.4837 Cl  0  0  0  0  0  0  0  0  0  0  0  0
    7.2514   -2.9620   65.0409 H   0  0  0  0  0  0  0  0  0  0  0  0
  8  9  1  0  0  0
  8 10  2  0  0  0
  9 11  2  0  0  0
 10 12  1  0  0  0
 11 13  1  0  0  0
 19 21  1  0  0  0
 19 22  2  0  0  0
 20 23  1  0  0  0
 20 24  2  0  0  0
 12 13  2  0  0  0
 12 14  1  0  0  0
 21 23  2  0  0  0
 21 26  1  0  0  0
 22 24  1  0  0  0
 22 18  1  0  0  0
 23 27  1  0  0  0
 13 16  1  0  0  0
 24 29  1  0  0  0
 14 15  2  0  0  0
 14  5  1  0  0  0
 25 26  1  0  0  0
 25 27  1  0  0  0
 25 28  2  0  0  0
  1  3  1  0  0  0
  1  5  1  0  0  0
  2  4  1  0  0  0
  2  5  1  0  0  0
  3  6  1  0  0  0
  4  6  1  0  0  0
 18 17  1  0  0  0
 17  6  1  0  0  0
 15 16  1  0  0  0
 27 30  1  0  0  0
  6  7  1  0  0  0
M  CHG 1   6   1
M  END
> <minimizedAffinity>
-10.87981

> <CNNscore>
0.7564528584

> <CNNaffinity>
7.0209341049

> <CNN_VS>
5.3110055923

> <CNNaffinity_variance>
0.0231035929

$$$$



 30 34  0  0  0  0  0  0  0  0999 V2000
   14.4566    1.1581   58.5450 C   0  0  0  0  0  0  0  0  0  0  0  0
   15.8130   -0.6105   59.6955 C   0  0  0  0  0  0  0  0  0  0  0  0
   13.3189    0.4876   59.3030 C   0  0  0  0  0  0  0  0  0  0  0  0
   15.1877   -0.0086   60.9476 C   0  0  0  0  0  0  0  0  0  0  0  0
   15.6429    0.2982   58.5586 N   0  0  0  0  0  0  0  0  0  0  0  0
   13.7133    0.2594   60.7438 N   0  0  0  0  0  0  0  0  0  0  0  0
   13.4962    1.1563   61.2561 H   0  0  0  0  0  0  0  0  0  0  0  0
   19.7213   -1.4908   58.6711 C   0  0  0  0  0  0  0  0  0  0  0  0
   20.4527   -1.3145   57.5015 C   0  0  0  0  0  0  0  0  0  0  0  0
   18.4231   -0.9825   58.7815 C   0  0  0  0  0  0  0  0  0  0  0  0
   19.9089   -0.6279   56.4132 C   0  0  0  0  0  0  0  0  0  0  0  0
   17.8484   -0.2840   57.6970 C   0  0  0  0  0  0  0  0  0  0  0  0
   18.6055   -0.1218   56.5347 C   0  0  0  0  0  0  0  0  0  0  0  0
   16.5692    0.3361   57.5210 C   0  0  0  0  0  0  0  0  0  0  0  0
   16.3230    0.9278   56.3568 N   0  0  0  0  0  0  0  0  0  0  0  0
   17.6612    0.7571   55.3963 S   0  0  0  0  0  0  0  0  0  0  0  0
   12.8386   -0.7747   61.3987 C   0  0  0  0  0  0  0  0  0  0  0  0
   11.4024   -0.6479   60.9010 C   0  0  0  0  0  0  0  0  0  0  0  0
   10.4050    0.0599   63.0647 C   0  0  0  0  0  0  0  0  0  0  0  0
    8.4361   -1.9801   62.9014 C   0  0  0  0  0  0  0  0  0  0  0  0
    9.4537   -0.0957   64.0540 C   0  0  0  0  0  0  0  0  0  0  0  0
   10.3697   -0.8189   61.9772 C   0  0  0  0  0  0  0  0  0  0  0  0
    8.4934   -1.1000   63.9628 C   0  0  0  0  0  0  0  0  0  0  0  0
    9.3938   -1.8300   61.8966 C   0  0  0  0  0  0  0  0  0  0  0  0
    8.0296   -0.0136   65.9369 C   0  0  0  0  0  0  0  0  0  0  0  0
    9.2452    0.6823   65.3140 C   0  0  0  0  0  0  0  0  0  0  0  0
    7.6573   -1.0490   65.0724 N   0  0  0  0  0  0  0  0  0  0  0  0
    7.5029    0.2974   66.9940 O   0  0  0  0  0  0  0  0  0  0  0  0
    9.3512   -2.9172   60.5542 Cl  0  0  0  0  0  0  0  0  0  0  0  0
    6.8813   -1.6829   65.2220 H   0  0  0  0  0  0  0  0  0  0  0  0
  8  9  1  0  0  0
  8 10  2  0  0  0
  9 11  2  0  0  0
 10 12  1  0  0  0
 11 13  1  0  0  0
 19 21  1  0  0  0
 19 22  2  0  0  0
 20 23  1  0  0  0
 20 24  2  0  0  0
 12 13  2  0  0  0
 12 14  1  0  0  0
 21 23  2  0  0  0
 21 26  1  0  0  0
 22 24  1  0  0  0
 22 18  1  0  0  0
 23 27  1  0  0  0
 13 16  1  0  0  0
 24 29  1  0  0  0
 14 15  2  0  0  0
 14  5  1  0  0  0
 25 26  1  0  0  0
 25 27  1  0  0  0
 25 28  2  0  0  0
  1  3  1  0  0  0
  1  5  1  0  0  0
  2  4  1  0  0  0
  2  5  1  0  0  0
  3  6  1  0  0  0
  4  6  1  0  0  0
 18 17  1  0  0  0
 17  6  1  0  0  0
 15 16  1  0  0  0
 27 30  1  0  0  0
  6  7  1  0  0  0
M  CHG 1   6   1
M  END
> <minimizedAffinity>
-10.54386

> <CNNscore>
0.7248188257

> <CNNaffinity>
7.1098241806

> <CNN_VS>
5.1533346176

> <CNNaffinity_variance>
0.0546858199

$$$$



 30 34  0  0  0  0  0  0  0  0999 V2000
   14.6623    1.2736   58.6300 C   0  0  0  0  0  0  0  0  0  0  0  0
   15.8934   -0.6407   59.6841 C   0  0  0  0  0  0  0  0  0  0  0  0
   13.4831    0.6513   59.3656 C   0  0  0  0  0  0  0  0  0  0  0  0
   15.3200   -0.0556   60.9685 C   0  0  0  0  0  0  0  0  0  0  0  0
   15.7834    0.3308   58.5927 N   0  0  0  0  0  0  0  0  0  0  0  0
   13.8677    0.3271   60.7905 N   0  0  0  0  0  0  0  0  0  0  0  0
   13.7188    1.2119   61.3463 H   0  0  0  0  0  0  0  0  0  0  0  0
   19.8165   -1.5599   58.6721 C   0  0  0  0  0  0  0  0  0  0  0  0
   20.5454   -1.3955   57.4992 C   0  0  0  0  0  0  0  0  0  0  0  0
   18.5320   -1.0200   58.7927 C   0  0  0  0  0  0  0  0  0  0  0  0
   20.0127   -0.6896   56.4178 C   0  0  0  0  0  0  0  0  0  0  0  0
   17.9688   -0.3014   57.7153 C   0  0  0  0  0  0  0  0  0  0  0  0
   18.7231   -0.1519   56.5495 C   0  0  0  0  0  0  0  0  0  0  0  0
   16.7045    0.3513   57.5500 C   0  0  0  0  0  0  0  0  0  0  0  0
   16.4666    0.9553   56.3904 N   0  0  0  0  0  0  0  0  0  0  0  0
   17.7946    0.7566   55.4212 S   0  0  0  0  0  0  0  0  0  0  0  0
   12.9242   -0.6713   61.4037 C   0  0  0  0  0  0  0  0  0  0  0  0
   11.6014   -0.0016   61.7621 C   0  0  0  0  0  0  0  0  0  0  0  0
   10.0486   -1.7223   60.8647 C   0  0  0  0  0  0  0  0  0  0  0  0
    8.7691    0.1987   59.2100 C   0  0  0  0  0  0  0  0  0  0  0  0
    8.9997   -2.0763   60.0386 C   0  0  0  0  0  0  0  0  0  0  0  0
   10.4628   -0.3864   60.8624 C   0  0  0  0  0  0  0  0  0  0  0  0
    8.3804   -1.1253   59.2316 C   0  0  0  0  0  0  0  0  0  0  0  0
    9.8285    0.5654   60.0420 C   0  0  0  0  0  0  0  0  0  0  0  0
    7.2666   -3.0902   58.7942 C   0  0  0  0  0  0  0  0  0  0  0  0
    8.3487   -3.4068   59.8328 C   0  0  0  0  0  0  0  0  0  0  0  0
    7.3613   -1.7254   58.5006 N   0  0  0  0  0  0  0  0  0  0  0  0
    6.4800   -3.8983   58.3252 O   0  0  0  0  0  0  0  0  0  0  0  0
   10.3415    2.2155   60.0374 Cl  0  0  0  0  0  0  0  0  0  0  0  0
    6.7697   -1.2273   57.8461 H   0  0  0  0  0  0  0  0  0  0  0  0
  8  9  1  0  0  0
  8 10  2  0  0  0
  9 11  2  0  0  0
 10 12  1  0  0  0
 11 13  1  0  0  0
 19 21  1  0  0  0
 19 22  2  0  0  0
 20 23  1  0  0  0
 20 24  2  0  0  0
 12 13  2  0  0  0
 12 14  1  0  0  0
 21 23  2  0  0  0
 21 26  1  0  0  0
 22 24  1  0  0  0
 22 18  1  0  0  0
 23 27  1  0  0  0
 13 16  1  0  0  0
 24 29  1  0  0  0
 14 15  2  0  0  0
 14  5  1  0  0  0
 25 26  1  0  0  0
 25 27  1  0  0  0
 25 28  2  0  0  0
  1  3  1  0  0  0
  1  5  1  0  0  0
  2  4  1  0  0  0
  2  5  1  0  0  0
  3  6  1  0  0  0
  4  6  1  0  0  0
 18 17  1  0  0  0
 17  6  1  0  0  0
 15 16  1  0  0  0
 27 30  1  0  0  0
  6  7  1  0  0  0
M  CHG 1   6   1
M  END
> <minimizedAffinity>
-10.57312

> <CNNscore>
0.6888484955

> <CNNaffinity>
7.1717071533

> <CNN_VS>
4.9402198792

> <CNNaffinity_variance>
0.0818697363

$$$$



 30 34  0  0  0  0  0  0  0  0999 V2000
   14.9715    1.4259   58.6803 C   0  0  0  0  0  0  0  0  0  0  0  0
   15.9212   -0.7466   59.4987 C   0  0  0  0  0  0  0  0  0  0  0  0
   13.7206    0.9035   59.3740 C   0  0  0  0  0  0  0  0  0  0  0  0
   15.4488   -0.2265   60.8505 C   0  0  0  0  0  0  0  0  0  0  0  0
   15.9440    0.3420   58.5181 N   0  0  0  0  0  0  0  0  0  0  0  0
   14.0657    0.3768   60.7477 N   0  0  0  0  0  0  0  0  0  0  0  0
   14.0509    1.2091   61.3965 H   0  0  0  0  0  0  0  0  0  0  0  0
   19.9827   -1.5373   58.5798 C   0  0  0  0  0  0  0  0  0  0  0  0
   20.6942   -1.3965   57.3932 C   0  0  0  0  0  0  0  0  0  0  0  0
   18.6987   -0.9979   58.7073 C   0  0  0  0  0  0  0  0  0  0  0  0
   20.1442   -0.7153   56.3047 C   0  0  0  0  0  0  0  0  0  0  0  0
   18.1182   -0.3039   57.6229 C   0  0  0  0  0  0  0  0  0  0  0  0
   18.8553   -0.1778   56.4434 C   0  0  0  0  0  0  0  0  0  0  0  0
   16.8500    0.3422   57.4620 C   0  0  0  0  0  0  0  0  0  0  0  0
   16.5938    0.9206   56.2932 N   0  0  0  0  0  0  0  0  0  0  0  0
   17.9082    0.7041   55.3095 S   0  0  0  0  0  0  0  0  0  0  0  0
   12.9926   -0.5363   61.2747 C   0  0  0  0  0  0  0  0  0  0  0  0
   11.6294    0.1431   61.1925 C   0  0  0  0  0  0  0  0  0  0  0  0
    9.9177   -1.3552   62.1937 C   0  0  0  0  0  0  0  0  0  0  0  0
    8.9212   -2.0442   59.6252 C   0  0  0  0  0  0  0  0  0  0  0  0
    8.8615   -2.2336   62.0492 C   0  0  0  0  0  0  0  0  0  0  0  0
   10.4831   -0.8135   61.0349 C   0  0  0  0  0  0  0  0  0  0  0  0
    8.3819   -2.5639   60.7843 C   0  0  0  0  0  0  0  0  0  0  0  0
    9.9890   -1.1553   59.7619 C   0  0  0  0  0  0  0  0  0  0  0  0
    7.0633   -3.7526   62.2475 C   0  0  0  0  0  0  0  0  0  0  0  0
    8.0683   -2.9582   63.0895 C   0  0  0  0  0  0  0  0  0  0  0  0
    7.3240   -3.4580   60.9047 N   0  0  0  0  0  0  0  0  0  0  0  0
    6.2040   -4.4984   62.6914 O   0  0  0  0  0  0  0  0  0  0  0  0
   10.6887   -0.4878   58.3298 Cl  0  0  0  0  0  0  0  0  0  0  0  0
    6.8148   -3.8371   60.1151 H   0  0  0  0  0  0  0  0  0  0  0  0
  8  9  1  0  0  0
  8 10  2  0  0  0
  9 11  2  0  0  0
 10 12  1  0  0  0
 11 13  1  0  0  0
 19 21  1  0  0  0
 19 22  2  0  0  0
 20 23  1  0  0  0
 20 24  2  0  0  0
 12 13  2  0  0  0
 12 14  1  0  0  0
 21 23  2  0  0  0
 21 26  1  0  0  0
 22 24  1  0  0  0
 22 18  1  0  0  0
 23 27  1  0  0  0
 13 16  1  0  0  0
 24 29  1  0  0  0
 14 15  2  0  0  0
 14  5  1  0  0  0
 25 26  1  0  0  0
 25 27  1  0  0  0
 25 28  2  0  0  0
  1  3  1  0  0  0
  1  5  1  0  0  0
  2  4  1  0  0  0
  2  5  1  0  0  0
  3  6  1  0  0  0
  4  6  1  0  0  0
 18 17  1  0  0  0
 17  6  1  0  0  0
 15 16  1  0  0  0
 27 30  1  0  0  0
  6  7  1  0  0  0
M  CHG 1   6   1
M  END
> <minimizedAffinity>
-10.14382

> <CNNscore>
0.6531663537

> <CNNaffinity>
6.9518456459

> <CNN_VS>
4.5407118797

> <CNNaffinity_variance>
0.0299795568

$$$$



 30 34  0  0  0  0  0  0  0  0999 V2000
   13.7826    1.3175   58.9158 C   0  0  0  0  0  0  0  0  0  0  0  0
   15.2546   -0.4977   59.8265 C   0  0  0  0  0  0  0  0  0  0  0  0
   12.7443    0.6327   59.7942 C   0  0  0  0  0  0  0  0  0  0  0  0
   14.8040    0.0694   61.1668 C   0  0  0  0  0  0  0  0  0  0  0  0
   14.9500    0.4478   58.7493 N   0  0  0  0  0  0  0  0  0  0  0  0
   13.3190    0.3558   61.1642 N   0  0  0  0  0  0  0  0  0  0  0  0
   13.1810    1.2378   61.7272 H   0  0  0  0  0  0  0  0  0  0  0  0
   14.0341   -1.5618   54.8803 C   0  0  0  0  0  0  0  0  0  0  0  0
   14.9808   -1.3406   53.8859 C   0  0  0  0  0  0  0  0  0  0  0  0
   14.1891   -0.9935   56.1488 C   0  0  0  0  0  0  0  0  0  0  0  0
   16.1049   -0.5481   54.1305 C   0  0  0  0  0  0  0  0  0  0  0  0
   15.3160   -0.1880   56.4240 C   0  0  0  0  0  0  0  0  0  0  0  0
   16.2507    0.0171   55.4068 C   0  0  0  0  0  0  0  0  0  0  0  0
   15.7348    0.5109   57.6020 C   0  0  0  0  0  0  0  0  0  0  0  0
   16.8710    1.1978   57.5432 N   0  0  0  0  0  0  0  0  0  0  0  0
   17.5015    1.0260   56.0216 S   0  0  0  0  0  0  0  0  0  0  0  0
   12.5238   -0.6912   61.8953 C   0  0  0  0  0  0  0  0  0  0  0  0
   11.0868   -0.7199   61.3844 C   0  0  0  0  0  0  0  0  0  0  0  0
   10.0176    0.1215   63.4643 C   0  0  0  0  0  0  0  0  0  0  0  0
    8.2099   -2.0685   63.5010 C   0  0  0  0  0  0  0  0  0  0  0  0
    9.0710   -0.0069   64.4620 C   0  0  0  0  0  0  0  0  0  0  0  0
   10.0594   -0.8611   62.4699 C   0  0  0  0  0  0  0  0  0  0  0  0
    8.1901   -1.0854   64.4693 C   0  0  0  0  0  0  0  0  0  0  0  0
    9.1634   -1.9465   62.4885 C   0  0  0  0  0  0  0  0  0  0  0  0
    7.6262    0.1534   66.3240 C   0  0  0  0  0  0  0  0  0  0  0  0
    8.7919    0.8744   65.6376 C   0  0  0  0  0  0  0  0  0  0  0  0
    7.3416   -0.9881   65.5664 N   0  0  0  0  0  0  0  0  0  0  0  0
    7.0671    0.5270   67.3436 O   0  0  0  0  0  0  0  0  0  0  0  0
    9.2162   -3.1619   61.2613 Cl  0  0  0  0  0  0  0  0  0  0  0  0
    6.6142   -1.6612   65.7768 H   0  0  0  0  0  0  0  0  0  0  0  0
  8  9  1  0  0  0
  8 10  2  0  0  0
  9 11  2  0  0  0
 10 12  1  0  0  0
 11 13  1  0  0  0
 19 21  1  0  0  0
 19 22  2  0  0  0
 20 23  1  0  0  0
 20 24  2  0  0  0
 12 13  2  0  0  0
 12 14  1  0  0  0
 21 23  2  0  0  0
 21 26  1  0  0  0
 22 24  1  0  0  0
 22 18  1  0  0  0
 23 27  1  0  0  0
 13 16  1  0  0  0
 24 29  1  0  0  0
 14 15  2  0  0  0
 14  5  1  0  0  0
 25 26  1  0  0  0
 25 27  1  0  0  0
 25 28  2  0  0  0
  1  3  1  0  0  0
  1  5  1  0  0  0
  2  4  1  0  0  0
  2  5  1  0  0  0
  3  6  1  0  0  0
  4  6  1  0  0  0
 18 17  1  0  0  0
 17  6  1  0  0  0
 15 16  1  0  0  0
 27 30  1  0  0  0
  6  7  1  0  0  0
M  CHG 1   6   1
M  END
> <minimizedAffinity>
-9.60921

> <CNNscore>
0.5880962610

> <CNNaffinity>
6.9031648636

> <CNN_VS>
4.0597252846

> <CNNaffinity_variance>
0.0328222439

$$$$



 30 34  0  0  0  0  0  0  0  0999 V2000
   14.0414   -0.7505   60.8854 C   0  0  0  0  0  0  0  0  0  0  0  0
   12.6126    1.0999   59.9766 C   0  0  0  0  0  0  0  0  0  0  0  0
   13.4036   -0.3195   62.1993 C   0  0  0  0  0  0  0  0  0  0  0  0
   11.4953    0.3123   60.6493 C   0  0  0  0  0  0  0  0  0  0  0  0
   13.8157    0.2715   59.8600 N   0  0  0  0  0  0  0  0  0  0  0  0
   11.9116   -0.1533   62.0266 N   0  0  0  0  0  0  0  0  0  0  0  0
   11.4892   -1.1111   62.1615 H   0  0  0  0  0  0  0  0  0  0  0  0
   13.1610   -0.9513   55.6264 C   0  0  0  0  0  0  0  0  0  0  0  0
   14.2215   -0.6538   54.7775 C   0  0  0  0  0  0  0  0  0  0  0  0
   13.2245   -0.6255   56.9851 C   0  0  0  0  0  0  0  0  0  0  0  0
   15.3712   -0.0244   55.2609 C   0  0  0  0  0  0  0  0  0  0  0  0
   14.3748    0.0110   57.5010 C   0  0  0  0  0  0  0  0  0  0  0  0
   15.4246    0.2979   56.6257 C   0  0  0  0  0  0  0  0  0  0  0  0
   14.7196    0.4555   58.8183 C   0  0  0  0  0  0  0  0  0  0  0  0
   15.9052    1.0319   58.9866 N   0  0  0  0  0  0  0  0  0  0  0  0
   16.6776    1.0641   57.5221 S   0  0  0  0  0  0  0  0  0  0  0  0
   11.3181    0.6832   63.1271 C   0  0  0  0  0  0  0  0  0  0  0  0
   10.8336   -0.2058   64.2679 C   0  0  0  0  0  0  0  0  0  0  0  0
    8.7029    1.0727   64.2149 C   0  0  0  0  0  0  0  0  0  0  0  0
    7.2648   -1.1514   65.2398 C   0  0  0  0  0  0  0  0  0  0  0  0
    7.3413    1.1429   64.4363 C   0  0  0  0  0  0  0  0  0  0  0  0
    9.3541   -0.1292   64.5108 C   0  0  0  0  0  0  0  0  0  0  0  0
    6.6471    0.0455   64.9394 C   0  0  0  0  0  0  0  0  0  0  0  0
    8.6410   -1.2313   65.0189 C   0  0  0  0  0  0  0  0  0  0  0  0
    5.0520    1.6801   64.6623 C   0  0  0  0  0  0  0  0  0  0  0  0
    6.3917    2.2770   64.2160 C   0  0  0  0  0  0  0  0  0  0  0  0
    5.3004    0.3652   65.0713 N   0  0  0  0  0  0  0  0  0  0  0  0
    3.9802    2.2655   64.6531 O   0  0  0  0  0  0  0  0  0  0  0  0
    9.4456   -2.7157   65.3866 Cl  0  0  0  0  0  0  0  0  0  0  0  0
    4.6001   -0.2801   65.4171 H   0  0  0  0  0  0  0  0  0  0  0  0
  8  9  1  0  0  0
  8 10  2  0  0  0
  9 11  2  0  0  0
 10 12  1  0  0  0
 11 13  1  0  0  0
 19 21  1  0  0  0
 19 22  2  0  0  0
 20 23  1  0  0  0
 20 24  2  0  0  0
 12 13  2  0  0  0
 12 14  1  0  0  0
 21 23  2  0  0  0
 21 26  1  0  0  0
 22 24  1  0  0  0
 22 18  1  0  0  0
 23 27  1  0  0  0
 13 16  1  0  0  0
 24 29  1  0  0  0
 14 15  2  0  0  0
 14  5  1  0  0  0
 25 26  1  0  0  0
 25 27  1  0  0  0
 25 28  2  0  0  0
  1  3  1  0  0  0
  1  5  1  0  0  0
  2  4  1  0  0  0
  2  5  1  0  0  0
  3  6  1  0  0  0
  4  6  1  0  0  0
 18 17  1  0  0  0
 17  6  1  0  0  0
 15 16  1  0  0  0
 27 30  1  0  0  0
  6  7  1  0  0  0
M  CHG 1   6   1
M  END
> <minimizedAffinity>
-8.64155

> <CNNscore>
0.4945476055

> <CNNaffinity>
6.7423667908

> <CNN_VS>
3.3344213963

> <CNNaffinity_variance>
0.1105538607

$$$$



 30 34  0  0  0  0  0  0  0  0999 V2000
   13.4794    1.5066   59.0188 C   0  0  0  0  0  0  0  0  0  0  0  0
   14.6521   -0.5071   59.9468 C   0  0  0  0  0  0  0  0  0  0  0  0
   12.2833    0.8778   59.7207 C   0  0  0  0  0  0  0  0  0  0  0  0
   14.1016    0.0155   61.2677 C   0  0  0  0  0  0  0  0  0  0  0  0
   14.5697    0.5329   58.9179 N   0  0  0  0  0  0  0  0  0  0  0  0
   12.6618    0.4543   61.1210 N   0  0  0  0  0  0  0  0  0  0  0  0
   12.5429    1.3074   61.7309 H   0  0  0  0  0  0  0  0  0  0  0  0
   14.0371   -1.3353   54.9087 C   0  0  0  0  0  0  0  0  0  0  0  0
   15.1043   -1.1332   54.0403 C   0  0  0  0  0  0  0  0  0  0  0  0
   14.0637   -0.8066   56.2033 C   0  0  0  0  0  0  0  0  0  0  0  0
   16.2239   -0.3995   54.4398 C   0  0  0  0  0  0  0  0  0  0  0  0
   15.1831   -0.0609   56.6339 C   0  0  0  0  0  0  0  0  0  0  0  0
   16.2404    0.1263   55.7408 C   0  0  0  0  0  0  0  0  0  0  0  0
   15.4877    0.5884   57.8737 C   0  0  0  0  0  0  0  0  0  0  0  0
   16.6511    1.2236   57.9703 N   0  0  0  0  0  0  0  0  0  0  0  0
   17.4508    1.0610   56.5294 S   0  0  0  0  0  0  0  0  0  0  0  0
   11.6887   -0.5496   61.6763 C   0  0  0  0  0  0  0  0  0  0  0  0
   10.7762    0.1085   62.7063 C   0  0  0  0  0  0  0  0  0  0  0  0
    9.2900   -1.8426   62.3041 C   0  0  0  0  0  0  0  0  0  0  0  0
    7.7331   -1.2142   64.5946 C   0  0  0  0  0  0  0  0  0  0  0  0
    8.2073   -2.6197   62.6672 C   0  0  0  0  0  0  0  0  0  0  0  0
    9.5979   -0.7345   63.0999 C   0  0  0  0  0  0  0  0  0  0  0  0
    7.4514   -2.3012   63.7925 C   0  0  0  0  0  0  0  0  0  0  0  0
    8.8260   -0.4232   64.2351 C   0  0  0  0  0  0  0  0  0  0  0  0
    6.4638   -4.1917   62.9302 C   0  0  0  0  0  0  0  0  0  0  0  0
    7.6482   -3.8466   62.0202 C   0  0  0  0  0  0  0  0  0  0  0  0
    6.4262   -3.2281   63.9441 N   0  0  0  0  0  0  0  0  0  0  0  0
    5.7076   -5.1384   62.7764 O   0  0  0  0  0  0  0  0  0  0  0  0
    9.2049    0.9470   65.2173 Cl  0  0  0  0  0  0  0  0  0  0  0  0
    5.7487   -3.1998   64.6969 H   0  0  0  0  0  0  0  0  0  0  0  0
  8  9  1  0  0  0
  8 10  2  0  0  0
  9 11  2  0  0  0
 10 12  1  0  0  0
 11 13  1  0  0  0
 19 21  1  0  0  0
 19 22  2  0  0  0
 20 23  1  0  0  0
 20 24  2  0  0  0
 12 13  2  0  0  0
 12 14  1  0  0  0
 21 23  2  0  0  0
 21 26  1  0  0  0
 22 24  1  0  0  0
 22 18  1  0  0  0
 23 27  1  0  0  0
 13 16  1  0  0  0
 24 29  1  0  0  0
 14 15  2  0  0  0
 14  5  1  0  0  0
 25 26  1  0  0  0
 25 27  1  0  0  0
 25 28  2  0  0  0
  1  3  1  0  0  0
  1  5  1  0  0  0
  2  4  1  0  0  0
  2  5  1  0  0  0
  3  6  1  0  0  0
  4  6  1  0  0  0
 18 17  1  0  0  0
 17  6  1  0  0  0
 15 16  1  0  0  0
 27 30  1  0  0  0
  6  7  1  0  0  0
M  CHG 1   6   1
M  END
> <minimizedAffinity>
-9.78271

> <CNNscore>
0.3961382806

> <CNNaffinity>
6.5731306076

> <CNN_VS>
2.6038687229

> <CNNaffinity_variance>
0.0333883315

$$$$



 30 34  0  0  0  0  0  0  0  0999 V2000
   11.4704    0.3901   63.4640 C   0  0  0  0  0  0  0  0  0  0  0  0
   10.3108   -0.4078   61.3880 C   0  0  0  0  0  0  0  0  0  0  0  0
   12.7068   -0.0643   62.7001 C   0  0  0  0  0  0  0  0  0  0  0  0
   11.2651    0.5658   60.7082 C   0  0  0  0  0  0  0  0  0  0  0  0
   10.2639   -0.1466   62.8291 N   0  0  0  0  0  0  0  0  0  0  0  0
   12.6606    0.4470   61.2788 N   0  0  0  0  0  0  0  0  0  0  0  0
   13.0611    1.4232   61.3020 H   0  0  0  0  0  0  0  0  0  0  0  0
    7.6587   -3.7322   62.3774 C   0  0  0  0  0  0  0  0  0  0  0  0
    6.5709   -3.7581   63.2433 C   0  0  0  0  0  0  0  0  0  0  0  0
    8.5643   -2.6667   62.4048 C   0  0  0  0  0  0  0  0  0  0  0  0
    6.3584   -2.7236   64.1577 C   0  0  0  0  0  0  0  0  0  0  0  0
    8.3738   -1.6073   63.3190 C   0  0  0  0  0  0  0  0  0  0  0  0
    7.2729   -1.6593   64.1768 C   0  0  0  0  0  0  0  0  0  0  0  0
    9.1174   -0.4096   63.5726 C   0  0  0  0  0  0  0  0  0  0  0  0
    8.6707    0.4073   64.5209 N   0  0  0  0  0  0  0  0  0  0  0  0
    7.2958   -0.2522   65.1666 S   0  0  0  0  0  0  0  0  0  0  0  0
   13.5909   -0.3253   60.3837 C   0  0  0  0  0  0  0  0  0  0  0  0
   15.0419   -0.0699   60.7784 C   0  0  0  0  0  0  0  0  0  0  0  0
   17.1399   -0.7339   59.6230 C   0  0  0  0  0  0  0  0  0  0  0  0
   16.5718    1.0031   57.4492 C   0  0  0  0  0  0  0  0  0  0  0  0
   18.0000   -0.6309   58.5472 C   0  0  0  0  0  0  0  0  0  0  0  0
   15.9778    0.0442   59.6100 C   0  0  0  0  0  0  0  0  0  0  0  0
   17.7107    0.2246   57.4872 C   0  0  0  0  0  0  0  0  0  0  0  0
   15.6966    0.9052   58.5325 C   0  0  0  0  0  0  0  0  0  0  0  0
   19.7149   -0.7564   56.9274 C   0  0  0  0  0  0  0  0  0  0  0  0
   19.2967   -1.3289   58.2866 C   0  0  0  0  0  0  0  0  0  0  0  0
   18.7219    0.1485   56.5360 N   0  0  0  0  0  0  0  0  0  0  0  0
   20.7323   -1.0518   56.3196 O   0  0  0  0  0  0  0  0  0  0  0  0
   14.2619    1.8683   58.5172 Cl  0  0  0  0  0  0  0  0  0  0  0  0
   18.7256    0.6819   55.6747 H   0  0  0  0  0  0  0  0  0  0  0  0
  8  9  1  0  0  0
  8 10  2  0  0  0
  9 11  2  0  0  0
 10 12  1  0  0  0
 11 13  1  0  0  0
 19 21  1  0  0  0
 19 22  2  0  0  0
 20 23  1  0  0  0
 20 24  2  0  0  0
 12 13  2  0  0  0
 12 14  1  0  0  0
 21 23  2  0  0  0
 21 26  1  0  0  0
 22 24  1  0  0  0
 22 18  1  0  0  0
 23 27  1  0  0  0
 13 16  1  0  0  0
 24 29  1  0  0  0
 14 15  2  0  0  0
 14  5  1  0  0  0
 25 26  1  0  0  0
 25 27  1  0  0  0
 25 28  2  0  0  0
  1  3  1  0  0  0
  1  5  1  0  0  0
  2  4  1  0  0  0
  2  5  1  0  0  0
  3  6  1  0  0  0
  4  6  1  0  0  0
 18 17  1  0  0  0
 17  6  1  0  0  0
 15 16  1  0  0  0
 27 30  1  0  0  0
  6  7  1  0  0  0
M  CHG 1   6   1
M  END
> <minimizedAffinity>
-9.56761

> <CNNscore>
0.3878352642

> <CNNaffinity>
6.6421346664

> <CNN_VS>
2.5760540962

> <CNNaffinity_variance>
0.0301611274

$$$$



 30 34  0  0  0  0  0  0  0  0999 V2000
   11.9809    1.9645   59.3107 C   0  0  0  0  0  0  0  0  0  0  0  0
   11.7983   -0.3509   60.2578 C   0  0  0  0  0  0  0  0  0  0  0  0
   10.8345    2.2281   60.2776 C   0  0  0  0  0  0  0  0  0  0  0  0
   11.9863    0.3797   61.5814 C   0  0  0  0  0  0  0  0  0  0  0  0
   12.1716    0.5216   59.1413 N   0  0  0  0  0  0  0  0  0  0  0  0
   11.1466    1.6365   61.6326 N   0  0  0  0  0  0  0  0  0  0  0  0
   11.7175    2.3598   62.1473 H   0  0  0  0  0  0  0  0  0  0  0  0
   16.4046    0.8288   57.7868 C   0  0  0  0  0  0  0  0  0  0  0  0
   16.6558    0.2204   56.5618 C   0  0  0  0  0  0  0  0  0  0  0  0
   15.1196    0.8125   58.3387 C   0  0  0  0  0  0  0  0  0  0  0  0
   15.6335   -0.4192   55.8566 C   0  0  0  0  0  0  0  0  0  0  0  0
   14.0670    0.1733   57.6474 C   0  0  0  0  0  0  0  0  0  0  0  0
   14.3479   -0.4295   56.4193 C   0  0  0  0  0  0  0  0  0  0  0  0
   12.6792   -0.0015   57.9560 C   0  0  0  0  0  0  0  0  0  0  0  0
   11.9296   -0.6653   57.0823 N   0  0  0  0  0  0  0  0  0  0  0  0
   12.8930   -1.1210   55.8147 S   0  0  0  0  0  0  0  0  0  0  0  0
    9.9030    1.4713   62.4628 C   0  0  0  0  0  0  0  0  0  0  0  0
   10.1451    0.4716   63.5891 C   0  0  0  0  0  0  0  0  0  0  0  0
    8.9339   -1.6139   62.9881 C   0  0  0  0  0  0  0  0  0  0  0  0
    6.9906   -1.1465   65.0056 C   0  0  0  0  0  0  0  0  0  0  0  0
    7.8886   -2.4938   63.1907 C   0  0  0  0  0  0  0  0  0  0  0  0
    9.0074   -0.4833   63.8081 C   0  0  0  0  0  0  0  0  0  0  0  0
    6.9417   -2.2536   64.1831 C   0  0  0  0  0  0  0  0  0  0  0  0
    8.0440   -0.2518   64.8079 C   0  0  0  0  0  0  0  0  0  0  0  0
    6.2856   -4.2289   63.2030 C   0  0  0  0  0  0  0  0  0  0  0  0
    7.5566   -3.7675   62.4808 C   0  0  0  0  0  0  0  0  0  0  0  0
    5.9999   -3.2763   64.1874 N   0  0  0  0  0  0  0  0  0  0  0  0
    5.6571   -5.2442   62.9469 O   0  0  0  0  0  0  0  0  0  0  0  0
    8.1334    1.1460   65.8198 Cl  0  0  0  0  0  0  0  0  0  0  0  0
    5.2153   -3.3162   64.8272 H   0  0  0  0  0  0  0  0  0  0  0  0
  8  9  1  0  0  0
  8 10  2  0  0  0
  9 11  2  0  0  0
 10 12  1  0  0  0
 11 13  1  0  0  0
 19 21  1  0  0  0
 19 22  2  0  0  0
 20 23  1  0  0  0
 20 24  2  0  0  0
 12 13  2  0  0  0
 12 14  1  0  0  0
 21 23  2  0  0  0
 21 26  1  0  0  0
 22 24  1  0  0  0
 22 18  1  0  0  0
 23 27  1  0  0  0
 13 16  1  0  0  0
 24 29  1  0  0  0
 14 15  2  0  0  0
 14  5  1  0  0  0
 25 26  1  0  0  0
 25 27  1  0  0  0
 25 28  2  0  0  0
  1  3  1  0  0  0
  1  5  1  0  0  0
  2  4  1  0  0  0
  2  5  1  0  0  0
  3  6  1  0  0  0
  4  6  1  0  0  0
 18 17  1  0  0  0
 17  6  1  0  0  0
 15 16  1  0  0  0
 27 30  1  0  0  0
  6  7  1  0  0  0
M  CHG 1   6   1
M  END
> <minimizedAffinity>
-9.76920

> <CNNscore>
0.3366885185

> <CNNaffinity>
6.6984696388

> <CNN_VS>
2.2552978992

> <CNNaffinity_variance>
0.0658299774

$$$$



 32 33  0  0  0  0  0  0  0  0999 V2000
   20.4524   -1.0313   57.0449 C   0  0  0  0  0  0  0  0  0  0  0  0
   20.0631   -1.5502   58.2798 C   0  0  0  0  0  0  0  0  0  0  0  0
   19.5838   -0.2070   56.3296 C   0  0  0  0  0  0  0  0  0  0  0  0
   18.8051   -1.2447   58.7993 C   0  0  0  0  0  0  0  0  0  0  0  0
   18.3258    0.0985   56.8491 C   0  0  0  0  0  0  0  0  0  0  0  0
   17.9365   -0.4204   58.0840 C   0  0  0  0  0  0  0  0  0  0  0  0
   17.4091    0.9820   56.0696 C   0  0  0  0  0  0  0  0  0  0  0  0
   17.3013    0.6126   54.5775 C   0  0  0  0  0  0  0  0  0  0  0  0
   13.7625    0.9847   53.2476 C   0  0  0  0  0  0  0  0  0  0  0  0
   15.0640    1.2885   53.6467 C   0  0  0  0  0  0  0  0  0  0  0  0
   13.2897   -0.3238   53.3480 C   0  0  0  0  0  0  0  0  0  0  0  0
   15.4201   -1.0247   54.2465 C   0  0  0  0  0  0  0  0  0  0  0  0
   15.8929    0.2838   54.1461 C   0  0  0  0  0  0  0  0  0  0  0  0
   14.1185   -1.3285   53.8473 C   0  0  0  0  0  0  0  0  0  0  0  0
   13.6828   -3.2070   55.2392 C   0  0  0  0  0  0  0  0  0  0  0  0
   13.6568   -2.6052   53.9459 O   0  0  0  0  0  0  0  0  0  0  0  0
   16.7051   -0.1312   58.6078 O   0  0  0  0  0  0  0  0  0  0  0  0
   15.5983   -0.8550   58.0780 C   0  0  0  0  0  0  0  0  0  0  0  0
   14.4318    0.1090   57.8832 C   0  0  0  0  0  0  0  0  0  0  0  0
   13.9258    0.7385   59.1767 C   0  0  0  0  0  0  0  0  0  0  0  0
   14.6943   -0.0733   61.4021 C   0  0  0  0  0  0  0  0  0  0  0  0
   12.3288   -0.4120   60.7020 C   0  0  0  0  0  0  0  0  0  0  0  0
   13.7589   -0.2861   60.2375 N   0  0  0  0  0  0  0  0  0  0  0  0
   14.0102   -1.2040   59.8325 H   0  0  0  0  0  0  0  0  0  0  0  0
   13.3469   -0.5805   57.2602 O   0  0  0  0  0  0  0  0  0  0  0  0
   12.3545    0.2133   56.7553 C   0  0  0  0  0  0  0  0  0  0  0  0
   12.4391    1.4147   56.5408 O   0  0  0  0  0  0  0  0  0  0  0  0
   11.1238   -0.6334   56.5127 C   0  0  0  0  0  0  0  0  0  0  0  0
   10.1283   -0.5736   57.6649 C   0  0  0  0  0  0  0  0  0  0  0  0
    8.7450   -1.1864   57.4134 C   0  0  0  0  0  0  0  0  0  0  0  0
    7.7809   -0.6889   58.0566 O   0  0  0  0  0  0  0  0  0  0  0  0
    8.7448   -2.1302   56.5710 O   0  0  0  0  0  0  0  0  0  0  0  0
  1  2  1  0  0  0
  1  3  2  0  0  0
  2  4  2  0  0  0
  9 10  1  0  0  0
  9 11  2  0  0  0
  3  5  1  0  0  0
 10 13  2  0  0  0
  4  6  1  0  0  0
 11 14  1  0  0  0
 12 13  1  0  0  0
 12 14  2  0  0  0
 13  8  1  0  0  0
  5  6  2  0  0  0
  5  7  1  0  0  0
 14 16  1  0  0  0
  6 17  1  0  0  0
 30 29  1  0  0  0
 30 31  1  0  0  0
 30 32  2  0  0  0
 26 28  1  0  0  0
 26 27  2  0  0  0
 26 25  1  0  0  0
 21 23  1  0  0  0
 22 23  1  0  0  0
 15 16  1  0  0  0
  8  7  1  0  0  0
 29 28  1  0  0  0
 20 19  1  0  0  0
 20 23  1  0  0  0
 18 19  1  0  0  0
 18 17  1  0  0  0
 19 25  1  0  0  0
 23 24  1  0  0  0
M  CHG 1  23   1
M  CHG 1  31  -1
M  END
> <minimizedAffinity>
-8.25316

> <CNNscore>
0.7996656299

> <CNNaffinity>
6.9727425575

> <CNN_VS>
5.5758624077

> <CNNaffinity_variance>
0.1591390967

$$$$



 32 33  0  0  0  0  0  0  0  0999 V2000
   13.5885   -0.5806   62.4333 C   0  0  0  0  0  0  0  0  0  0  0  0
   12.2850   -0.0884   62.3681 C   0  0  0  0  0  0  0  0  0  0  0  0
   14.4044   -0.5461   61.3025 C   0  0  0  0  0  0  0  0  0  0  0  0
   11.7974    0.4384   61.1721 C   0  0  0  0  0  0  0  0  0  0  0  0
   13.9169   -0.0193   60.1064 C   0  0  0  0  0  0  0  0  0  0  0  0
   12.6134    0.4729   60.0413 C   0  0  0  0  0  0  0  0  0  0  0  0
   14.8041    0.0092   58.9062 C   0  0  0  0  0  0  0  0  0  0  0  0
   16.1974   -0.6053   59.1420 C   0  0  0  0  0  0  0  0  0  0  0  0
   17.8262    1.1092   56.1692 C   0  0  0  0  0  0  0  0  0  0  0  0
   16.9015    0.7702   57.1568 C   0  0  0  0  0  0  0  0  0  0  0  0
   19.0476    0.4390   56.0977 C   0  0  0  0  0  0  0  0  0  0  0  0
   18.4192   -0.9091   58.0017 C   0  0  0  0  0  0  0  0  0  0  0  0
   17.1979   -0.2389   58.0731 C   0  0  0  0  0  0  0  0  0  0  0  0
   19.3440   -0.5700   57.0140 C   0  0  0  0  0  0  0  0  0  0  0  0
   20.8932   -2.0432   58.0560 C   0  0  0  0  0  0  0  0  0  0  0  0
   20.5356   -1.2244   56.9437 O   0  0  0  0  0  0  0  0  0  0  0  0
   12.1190    0.9926   58.8750 O   0  0  0  0  0  0  0  0  0  0  0  0
   10.7100    1.1924   58.8102 C   0  0  0  0  0  0  0  0  0  0  0  0
   10.1035    0.1121   57.9196 C   0  0  0  0  0  0  0  0  0  0  0  0
    8.9449   -0.6424   58.5626 C   0  0  0  0  0  0  0  0  0  0  0  0
    8.9921   -3.0512   59.1932 C   0  0  0  0  0  0  0  0  0  0  0  0
    7.6754   -2.3075   57.2148 C   0  0  0  0  0  0  0  0  0  0  0  0
    8.8863   -2.0432   58.0754 N   0  0  0  0  0  0  0  0  0  0  0  0
    9.7088   -2.2012   57.4686 H   0  0  0  0  0  0  0  0  0  0  0  0
   11.1156   -0.8305   57.5625 O   0  0  0  0  0  0  0  0  0  0  0  0
   11.3520   -0.9644   56.2223 C   0  0  0  0  0  0  0  0  0  0  0  0
   10.5776   -1.4402   55.4036 O   0  0  0  0  0  0  0  0  0  0  0  0
   12.7364   -0.4371   55.9127 C   0  0  0  0  0  0  0  0  0  0  0  0
   13.7878   -1.5383   55.8483 C   0  0  0  0  0  0  0  0  0  0  0  0
   13.8197   -2.3873   54.5714 C   0  0  0  0  0  0  0  0  0  0  0  0
   14.3004   -1.8411   53.5411 O   0  0  0  0  0  0  0  0  0  0  0  0
   13.3545   -3.5547   54.7168 O   0  0  0  0  0  0  0  0  0  0  0  0
  1  2  1  0  0  0
  1  3  2  0  0  0
  2  4  2  0  0  0
  9 10  1  0  0  0
  9 11  2  0  0  0
  3  5  1  0  0  0
 10 13  2  0  0  0
  4  6  1  0  0  0
 11 14  1  0  0  0
 12 13  1  0  0  0
 12 14  2  0  0  0
 13  8  1  0  0  0
  5  6  2  0  0  0
  5  7  1  0  0  0
 14 16  1  0  0  0
  6 17  1  0  0  0
 30 29  1  0  0  0
 30 31  1  0  0  0
 30 32  2  0  0  0
 26 28  1  0  0  0
 26 27  2  0  0  0
 26 25  1  0  0  0
 21 23  1  0  0  0
 22 23  1  0  0  0
 15 16  1  0  0  0
  8  7  1  0  0  0
 29 28  1  0  0  0
 20 19  1  0  0  0
 20 23  1  0  0  0
 18 19  1  0  0  0
 18 17  1  0  0  0
 19 25  1  0  0  0
 23 24  1  0  0  0
M  CHG 1  23   1
M  CHG 1  31  -1
M  END
> <minimizedAffinity>
-8.17186

> <CNNscore>
0.5276231170

> <CNNaffinity>
6.6074876785

> <CNN_VS>
3.4862632751

> <CNNaffinity_variance>
0.1900723577

$$$$



 32 33  0  0  0  0  0  0  0  0999 V2000
   11.1876   -0.5278   56.8952 C   0  0  0  0  0  0  0  0  0  0  0  0
   11.4844    0.7662   57.3234 C   0  0  0  0  0  0  0  0  0  0  0  0
   10.0854   -1.2011   57.4218 C   0  0  0  0  0  0  0  0  0  0  0  0
   10.6788    1.3868   58.2782 C   0  0  0  0  0  0  0  0  0  0  0  0
    9.2798   -0.5805   58.3766 C   0  0  0  0  0  0  0  0  0  0  0  0
    9.5766    0.7135   58.8048 C   0  0  0  0  0  0  0  0  0  0  0  0
    8.1045   -1.3163   58.9295 C   0  0  0  0  0  0  0  0  0  0  0  0
    8.3686   -2.8113   59.1935 C   0  0  0  0  0  0  0  0  0  0  0  0
    8.7232   -3.6648   62.8780 C   0  0  0  0  0  0  0  0  0  0  0  0
    9.0328   -3.2737   61.5754 C   0  0  0  0  0  0  0  0  0  0  0  0
    7.4145   -4.0172   63.2081 C   0  0  0  0  0  0  0  0  0  0  0  0
    6.7250   -3.5873   60.9328 C   0  0  0  0  0  0  0  0  0  0  0  0
    8.0336   -3.2350   60.6028 C   0  0  0  0  0  0  0  0  0  0  0  0
    6.4154   -3.9784   62.2355 C   0  0  0  0  0  0  0  0  0  0  0  0
    4.9489   -5.0539   63.7681 C   0  0  0  0  0  0  0  0  0  0  0  0
    5.1385   -4.3230   62.5575 O   0  0  0  0  0  0  0  0  0  0  0  0
    8.7967    1.3366   59.7417 O   0  0  0  0  0  0  0  0  0  0  0  0
    9.4768    1.9702   60.8213 C   0  0  0  0  0  0  0  0  0  0  0  0
    9.9211    0.9005   61.8144 C   0  0  0  0  0  0  0  0  0  0  0  0
    9.3455    1.0783   63.2152 C   0  0  0  0  0  0  0  0  0  0  0  0
   10.1788   -0.7511   64.6852 C   0  0  0  0  0  0  0  0  0  0  0  0
    7.7458   -0.2262   64.6081 C   0  0  0  0  0  0  0  0  0  0  0  0
    9.0427   -0.2350   63.8369 N   0  0  0  0  0  0  0  0  0  0  0  0
    8.9183   -0.9238   63.0754 H   0  0  0  0  0  0  0  0  0  0  0  0
   11.3466    0.9028   61.9066 O   0  0  0  0  0  0  0  0  0  0  0  0
   11.9650   -0.2566   61.5283 C   0  0  0  0  0  0  0  0  0  0  0  0
   11.4413   -1.1821   60.9237 O   0  0  0  0  0  0  0  0  0  0  0  0
   13.4062   -0.2174   61.9887 C   0  0  0  0  0  0  0  0  0  0  0  0
   14.3771   -0.7423   60.9380 C   0  0  0  0  0  0  0  0  0  0  0  0
   15.2579    0.2966   60.2330 C   0  0  0  0  0  0  0  0  0  0  0  0
   14.7710    0.8494   59.2092 O   0  0  0  0  0  0  0  0  0  0  0  0
   16.3837    0.4755   60.7817 O   0  0  0  0  0  0  0  0  0  0  0  0
  1  2  1  0  0  0
  1  3  2  0  0  0
  2  4  2  0  0  0
  9 10  1  0  0  0
  9 11  2  0  0  0
  3  5  1  0  0  0
 10 13  2  0  0  0
  4  6  1  0  0  0
 11 14  1  0  0  0
 12 13  1  0  0  0
 12 14  2  0  0  0
 13  8  1  0  0  0
  5  6  2  0  0  0
  5  7  1  0  0  0
 14 16  1  0  0  0
  6 17  1  0  0  0
 30 29  1  0  0  0
 30 31  1  0  0  0
 30 32  2  0  0  0
 26 28  1  0  0  0
 26 27  2  0  0  0
 26 25  1  0  0  0
 21 23  1  0  0  0
 22 23  1  0  0  0
 15 16  1  0  0  0
  8  7  1  0  0  0
 29 28  1  0  0  0
 20 19  1  0  0  0
 20 23  1  0  0  0
 18 19  1  0  0  0
 18 17  1  0  0  0
 19 25  1  0  0  0
 23 24  1  0  0  0
M  CHG 1  23   1
M  CHG 1  31  -1
M  END
> <minimizedAffinity>
-7.41039

> <CNNscore>
0.4332386553

> <CNNaffinity>
5.9437608719

> <CNN_VS>
2.5750670433

> <CNNaffinity_variance>
0.3598579168

$$$$



 32 33  0  0  0  0  0  0  0  0999 V2000
   15.2151    0.0366   60.6090 C   0  0  0  0  0  0  0  0  0  0  0  0
   14.4801   -0.5072   61.6624 C   0  0  0  0  0  0  0  0  0  0  0  0
   14.5662    0.4461   59.4441 C   0  0  0  0  0  0  0  0  0  0  0  0
   13.0961   -0.6416   61.5509 C   0  0  0  0  0  0  0  0  0  0  0  0
   13.1822    0.3118   59.3326 C   0  0  0  0  0  0  0  0  0  0  0  0
   12.4473   -0.2321   60.3860 C   0  0  0  0  0  0  0  0  0  0  0  0
   12.5047    0.7550   58.0784 C   0  0  0  0  0  0  0  0  0  0  0  0
   12.1346   -0.3977   57.1250 C   0  0  0  0  0  0  0  0  0  0  0  0
   13.9894   -1.9389   54.1900 C   0  0  0  0  0  0  0  0  0  0  0  0
   13.0389   -1.7237   55.1879 C   0  0  0  0  0  0  0  0  0  0  0  0
   15.0644   -1.0611   54.0498 C   0  0  0  0  0  0  0  0  0  0  0  0
   14.2383    0.2471   55.9053 C   0  0  0  0  0  0  0  0  0  0  0  0
   13.1633   -0.6307   56.0456 C   0  0  0  0  0  0  0  0  0  0  0  0
   15.1888    0.0319   54.9073 C   0  0  0  0  0  0  0  0  0  0  0  0
   17.4103    0.6052   55.5336 C   0  0  0  0  0  0  0  0  0  0  0  0
   16.2382    0.8880   54.7708 O   0  0  0  0  0  0  0  0  0  0  0  0
   11.0885   -0.3717   60.2925 O   0  0  0  0  0  0  0  0  0  0  0  0
   10.3058    0.3253   61.2574 C   0  0  0  0  0  0  0  0  0  0  0  0
    9.5286   -0.6940   62.0850 C   0  0  0  0  0  0  0  0  0  0  0  0
    9.9206   -0.7239   63.5583 C   0  0  0  0  0  0  0  0  0  0  0  0
    9.1462   -2.1925   65.4146 C   0  0  0  0  0  0  0  0  0  0  0  0
    8.0954    0.0387   65.0710 C   0  0  0  0  0  0  0  0  0  0  0  0
    8.7733   -1.1340   64.4061 N   0  0  0  0  0  0  0  0  0  0  0  0
    8.0627   -1.5636   63.7896 H   0  0  0  0  0  0  0  0  0  0  0  0
    9.7261   -1.9983   61.5370 O   0  0  0  0  0  0  0  0  0  0  0  0
    8.5868   -2.7064   61.2716 C   0  0  0  0  0  0  0  0  0  0  0  0
    7.6846   -2.9336   62.0658 O   0  0  0  0  0  0  0  0  0  0  0  0
    8.6246   -3.1765   59.8335 C   0  0  0  0  0  0  0  0  0  0  0  0
    7.7531   -2.3316   58.9122 C   0  0  0  0  0  0  0  0  0  0  0  0
    8.4812   -1.4733   57.8703 C   0  0  0  0  0  0  0  0  0  0  0  0
    8.9951   -2.0842   56.8939 O   0  0  0  0  0  0  0  0  0  0  0  0
    8.4699   -0.2340   58.1245 O   0  0  0  0  0  0  0  0  0  0  0  0
  1  2  1  0  0  0
  1  3  2  0  0  0
  2  4  2  0  0  0
  9 10  1  0  0  0
  9 11  2  0  0  0
  3  5  1  0  0  0
 10 13  2  0  0  0
  4  6  1  0  0  0
 11 14  1  0  0  0
 12 13  1  0  0  0
 12 14  2  0  0  0
 13  8  1  0  0  0
  5  6  2  0  0  0
  5  7  1  0  0  0
 14 16  1  0  0  0
  6 17  1  0  0  0
 30 29  1  0  0  0
 30 31  1  0  0  0
 30 32  2  0  0  0
 26 28  1  0  0  0
 26 27  2  0  0  0
 26 25  1  0  0  0
 21 23  1  0  0  0
 22 23  1  0  0  0
 15 16  1  0  0  0
  8  7  1  0  0  0
 29 28  1  0  0  0
 20 19  1  0  0  0
 20 23  1  0  0  0
 18 19  1  0  0  0
 18 17  1  0  0  0
 19 25  1  0  0  0
 23 24  1  0  0  0
M  CHG 1  23   1
M  CHG 1  31  -1
M  END
> <minimizedAffinity>
-7.83119

> <CNNscore>
0.3503691256

> <CNNaffinity>
6.1956086159

> <CNN_VS>
2.1707499027

> <CNNaffinity_variance>
0.2486001551

$$$$



 32 33  0  0  0  0  0  0  0  0999 V2000
   13.5706   -0.5031   62.3515 C   0  0  0  0  0  0  0  0  0  0  0  0
   12.3644   -0.3872   61.6608 C   0  0  0  0  0  0  0  0  0  0  0  0
   14.7787   -0.3005   61.6844 C   0  0  0  0  0  0  0  0  0  0  0  0
   12.3662   -0.0687   60.3027 C   0  0  0  0  0  0  0  0  0  0  0  0
   14.7806    0.0180   60.3263 C   0  0  0  0  0  0  0  0  0  0  0  0
   13.5743    0.1338   59.6355 C   0  0  0  0  0  0  0  0  0  0  0  0
   16.0830    0.2309   59.6284 C   0  0  0  0  0  0  0  0  0  0  0  0
   16.9267   -1.0490   59.4717 C   0  0  0  0  0  0  0  0  0  0  0  0
   20.3504   -1.3563   57.8550 C   0  0  0  0  0  0  0  0  0  0  0  0
   19.2964   -1.4990   58.7573 C   0  0  0  0  0  0  0  0  0  0  0  0
   20.1751   -0.6084   56.6905 C   0  0  0  0  0  0  0  0  0  0  0  0
   17.8919   -0.1462   57.3310 C   0  0  0  0  0  0  0  0  0  0  0  0
   18.0671   -0.8940   58.4954 C   0  0  0  0  0  0  0  0  0  0  0  0
   18.9459   -0.0034   56.4285 C   0  0  0  0  0  0  0  0  0  0  0  0
   17.4395    1.0944   54.9516 C   0  0  0  0  0  0  0  0  0  0  0  0
   18.7753    0.7269   55.2926 O   0  0  0  0  0  0  0  0  0  0  0  0
   13.5585    0.4450   58.3023 O   0  0  0  0  0  0  0  0  0  0  0  0
   12.2921    0.7686   57.7358 C   0  0  0  0  0  0  0  0  0  0  0  0
   11.7230   -0.4786   57.0660 C   0  0  0  0  0  0  0  0  0  0  0  0
   12.2649   -0.7302   55.6630 C   0  0  0  0  0  0  0  0  0  0  0  0
   14.6790   -1.3332   55.5608 C   0  0  0  0  0  0  0  0  0  0  0  0
   13.8389    0.6556   54.3201 C   0  0  0  0  0  0  0  0  0  0  0  0
   13.6546   -0.2259   55.5309 N   0  0  0  0  0  0  0  0  0  0  0  0
   13.8537    0.3705   56.3521 H   0  0  0  0  0  0  0  0  0  0  0  0
   10.3009   -0.3678   56.9894 O   0  0  0  0  0  0  0  0  0  0  0  0
    9.5976   -1.2237   57.7910 C   0  0  0  0  0  0  0  0  0  0  0  0
    9.8136   -2.4205   57.9226 O   0  0  0  0  0  0  0  0  0  0  0  0
    8.4960   -0.4526   58.4855 C   0  0  0  0  0  0  0  0  0  0  0  0
    8.9242    0.1000   59.8396 C   0  0  0  0  0  0  0  0  0  0  0  0
    9.0942    1.6209   59.9411 C   0  0  0  0  0  0  0  0  0  0  0  0
    9.1089    2.1119   61.1027 O   0  0  0  0  0  0  0  0  0  0  0  0
    9.2056    2.2029   58.8233 O   0  0  0  0  0  0  0  0  0  0  0  0
  1  2  1  0  0  0
  1  3  2  0  0  0
  2  4  2  0  0  0
  9 10  1  0  0  0
  9 11  2  0  0  0
  3  5  1  0  0  0
 10 13  2  0  0  0
  4  6  1  0  0  0
 11 14  1  0  0  0
 12 13  1  0  0  0
 12 14  2  0  0  0
 13  8  1  0  0  0
  5  6  2  0  0  0
  5  7  1  0  0  0
 14 16  1  0  0  0
  6 17  1  0  0  0
 30 29  1  0  0  0
 30 31  1  0  0  0
 30 32  2  0  0  0
 26 28  1  0  0  0
 26 27  2  0  0  0
 26 25  1  0  0  0
 21 23  1  0  0  0
 22 23  1  0  0  0
 15 16  1  0  0  0
  8  7  1  0  0  0
 29 28  1  0  0  0
 20 19  1  0  0  0
 20 23  1  0  0  0
 18 19  1  0  0  0
 18 17  1  0  0  0
 19 25  1  0  0  0
 23 24  1  0  0  0
M  CHG 1  23   1
M  CHG 1  31  -1
M  END
> <minimizedAffinity>
-8.09718

> <CNNscore>
0.2871559858

> <CNNaffinity>
6.4265685081

> <CNN_VS>
1.8454276323

> <CNNaffinity_variance>
0.2538233399

$$$$



 32 33  0  0  0  0  0  0  0  0999 V2000
   10.0246    2.7287   59.5026 C   0  0  0  0  0  0  0  0  0  0  0  0
    9.2191    2.6564   60.6390 C   0  0  0  0  0  0  0  0  0  0  0  0
   10.9647    1.7298   59.2493 C   0  0  0  0  0  0  0  0  0  0  0  0
    9.3537    1.5852   61.5223 C   0  0  0  0  0  0  0  0  0  0  0  0
   11.0993    0.6586   60.1326 C   0  0  0  0  0  0  0  0  0  0  0  0
   10.2938    0.5863   61.2690 C   0  0  0  0  0  0  0  0  0  0  0  0
   12.1110   -0.4011   59.8458 C   0  0  0  0  0  0  0  0  0  0  0  0
   13.4998   -0.1223   60.4523 C   0  0  0  0  0  0  0  0  0  0  0  0
   16.9099   -0.7298   58.8927 C   0  0  0  0  0  0  0  0  0  0  0  0
   15.8771   -0.6575   59.8274 C   0  0  0  0  0  0  0  0  0  0  0  0
   16.6829   -0.3445   57.5714 C   0  0  0  0  0  0  0  0  0  0  0  0
   14.3903    0.1852   58.1196 C   0  0  0  0  0  0  0  0  0  0  0  0
   14.6173   -0.2000   59.4409 C   0  0  0  0  0  0  0  0  0  0  0  0
   15.4232    0.1129   57.1848 C   0  0  0  0  0  0  0  0  0  0  0  0
   15.0560   -0.5518   54.9311 C   0  0  0  0  0  0  0  0  0  0  0  0
   15.2020    0.4894   55.8956 O   0  0  0  0  0  0  0  0  0  0  0  0
   10.4137   -0.4578   62.1465 O   0  0  0  0  0  0  0  0  0  0  0  0
    9.6155   -0.3980   63.3250 C   0  0  0  0  0  0  0  0  0  0  0  0
    8.7961   -1.6811   63.4261 C   0  0  0  0  0  0  0  0  0  0  0  0
    8.9487   -2.4102   64.7567 C   0  0  0  0  0  0  0  0  0  0  0  0
    8.2868   -1.0470   66.7330 C   0  0  0  0  0  0  0  0  0  0  0  0
    6.6091   -1.5853   64.9734 C   0  0  0  0  0  0  0  0  0  0  0  0
    7.8534   -2.0481   65.6906 N   0  0  0  0  0  0  0  0  0  0  0  0
    7.5845   -2.9022   66.2084 H   0  0  0  0  0  0  0  0  0  0  0  0
    9.1777   -2.5706   62.3756 O   0  0  0  0  0  0  0  0  0  0  0  0
    8.1582   -3.0217   61.5838 C   0  0  0  0  0  0  0  0  0  0  0  0
    7.0020   -3.2020   61.9403 O   0  0  0  0  0  0  0  0  0  0  0  0
    8.6930   -3.2742   60.1908 C   0  0  0  0  0  0  0  0  0  0  0  0
    7.8937   -2.5547   59.1111 C   0  0  0  0  0  0  0  0  0  0  0  0
    8.6553   -1.5378   58.2519 C   0  0  0  0  0  0  0  0  0  0  0  0
    8.2455   -0.3456   58.2905 O   0  0  0  0  0  0  0  0  0  0  0  0
    9.6219   -2.0327   57.6029 O   0  0  0  0  0  0  0  0  0  0  0  0
  1  2  1  0  0  0
  1  3  2  0  0  0
  2  4  2  0  0  0
  9 10  1  0  0  0
  9 11  2  0  0  0
  3  5  1  0  0  0
 10 13  2  0  0  0
  4  6  1  0  0  0
 11 14  1  0  0  0
 12 13  1  0  0  0
 12 14  2  0  0  0
 13  8  1  0  0  0
  5  6  2  0  0  0
  5  7  1  0  0  0
 14 16  1  0  0  0
  6 17  1  0  0  0
 30 29  1  0  0  0
 30 31  1  0  0  0
 30 32  2  0  0  0
 26 28  1  0  0  0
 26 27  2  0  0  0
 26 25  1  0  0  0
 21 23  1  0  0  0
 22 23  1  0  0  0
 15 16  1  0  0  0
  8  7  1  0  0  0
 29 28  1  0  0  0
 20 19  1  0  0  0
 20 23  1  0  0  0
 18 19  1  0  0  0
 18 17  1  0  0  0
 19 25  1  0  0  0
 23 24  1  0  0  0
M  CHG 1  23   1
M  CHG 1  31  -1
M  END
> <minimizedAffinity>
-7.84184

> <CNNscore>
0.2805687189

> <CNNaffinity>
6.2001819611

> <CNN_VS>
1.7395770550

> <CNNaffinity_variance>
0.2450797856

$$$$



 32 33  0  0  0  0  0  0  0  0999 V2000
    6.6391   -2.9759   58.1719 C   0  0  0  0  0  0  0  0  0  0  0  0
    7.3197   -2.4559   57.0710 C   0  0  0  0  0  0  0  0  0  0  0  0
    7.2296   -2.9450   59.4353 C   0  0  0  0  0  0  0  0  0  0  0  0
    8.5910   -1.9050   57.2334 C   0  0  0  0  0  0  0  0  0  0  0  0
    8.5008   -2.3941   59.5977 C   0  0  0  0  0  0  0  0  0  0  0  0
    9.1814   -1.8741   58.4967 C   0  0  0  0  0  0  0  0  0  0  0  0
    9.1174   -2.3698   60.9570 C   0  0  0  0  0  0  0  0  0  0  0  0
    8.6154   -3.4863   61.8930 C   0  0  0  0  0  0  0  0  0  0  0  0
    7.0394   -1.5935   64.7850 C   0  0  0  0  0  0  0  0  0  0  0  0
    7.9710   -2.0398   63.8477 C   0  0  0  0  0  0  0  0  0  0  0  0
    5.7441   -2.1113   64.7821 C   0  0  0  0  0  0  0  0  0  0  0  0
    6.3122   -3.5216   62.9044 C   0  0  0  0  0  0  0  0  0  0  0  0
    7.6074   -3.0038   62.9074 C   0  0  0  0  0  0  0  0  0  0  0  0
    5.3805   -3.0752   63.8417 C   0  0  0  0  0  0  0  0  0  0  0  0
    3.3450   -3.4056   65.0266 C   0  0  0  0  0  0  0  0  0  0  0  0
    4.1167   -3.5809   63.8394 O   0  0  0  0  0  0  0  0  0  0  0  0
   10.4300   -1.3306   58.6387 O   0  0  0  0  0  0  0  0  0  0  0  0
   10.5837    0.0305   58.2471 C   0  0  0  0  0  0  0  0  0  0  0  0
   12.0199    0.4613   58.5293 C   0  0  0  0  0  0  0  0  0  0  0  0
   12.1757    1.3135   59.7842 C   0  0  0  0  0  0  0  0  0  0  0  0
   12.1334   -0.3413   61.6449 C   0  0  0  0  0  0  0  0  0  0  0  0
   14.1737   -0.1020   60.2376 C   0  0  0  0  0  0  0  0  0  0  0  0
   12.9705    0.6014   60.8158 N   0  0  0  0  0  0  0  0  0  0  0  0
   13.3409    1.3088   61.4732 H   0  0  0  0  0  0  0  0  0  0  0  0
   12.5202    1.2008   57.4143 O   0  0  0  0  0  0  0  0  0  0  0  0
   12.9549    0.4520   56.3558 C   0  0  0  0  0  0  0  0  0  0  0  0
   12.6597    0.6330   55.1826 O   0  0  0  0  0  0  0  0  0  0  0  0
   13.8560   -0.6494   56.8707 C   0  0  0  0  0  0  0  0  0  0  0  0
   14.7495   -1.2381   55.7855 C   0  0  0  0  0  0  0  0  0  0  0  0
   14.1131   -2.2824   54.8599 C   0  0  0  0  0  0  0  0  0  0  0  0
   13.3522   -3.1297   55.4020 O   0  0  0  0  0  0  0  0  0  0  0  0
   14.4344   -2.1564   53.6427 O   0  0  0  0  0  0  0  0  0  0  0  0
  1  2  1  0  0  0
  1  3  2  0  0  0
  2  4  2  0  0  0
  9 10  1  0  0  0
  9 11  2  0  0  0
  3  5  1  0  0  0
 10 13  2  0  0  0
  4  6  1  0  0  0
 11 14  1  0  0  0
 12 13  1  0  0  0
 12 14  2  0  0  0
 13  8  1  0  0  0
  5  6  2  0  0  0
  5  7  1  0  0  0
 14 16  1  0  0  0
  6 17  1  0  0  0
 30 29  1  0  0  0
 30 31  1  0  0  0
 30 32  2  0  0  0
 26 28  1  0  0  0
 26 27  2  0  0  0
 26 25  1  0  0  0
 21 23  1  0  0  0
 22 23  1  0  0  0
 15 16  1  0  0  0
  8  7  1  0  0  0
 29 28  1  0  0  0
 20 19  1  0  0  0
 20 23  1  0  0  0
 18 19  1  0  0  0
 18 17  1  0  0  0
 19 25  1  0  0  0
 23 24  1  0  0  0
M  CHG 1  23   1
M  CHG 1  31  -1
M  END
> <minimizedAffinity>
-7.35389

> <CNNscore>
0.2448322773

> <CNNaffinity>
5.8175520897

> <CNN_VS>
1.4243245125

> <CNNaffinity_variance>
0.4293248057

$$$$



 32 33  0  0  0  0  0  0  0  0999 V2000
   12.9788   -0.3947   62.1554 C   0  0  0  0  0  0  0  0  0  0  0  0
   11.7093    0.0377   61.7721 C   0  0  0  0  0  0  0  0  0  0  0  0
   14.0427   -0.3180   61.2566 C   0  0  0  0  0  0  0  0  0  0  0  0
   11.5036    0.5469   60.4898 C   0  0  0  0  0  0  0  0  0  0  0  0
   13.8370    0.1912   59.9743 C   0  0  0  0  0  0  0  0  0  0  0  0
   12.5675    0.6236   59.5910 C   0  0  0  0  0  0  0  0  0  0  0  0
   14.9871    0.2656   59.0254 C   0  0  0  0  0  0  0  0  0  0  0  0
   16.1687   -0.6499   59.3999 C   0  0  0  0  0  0  0  0  0  0  0  0
   18.2896    0.3331   56.4056 C   0  0  0  0  0  0  0  0  0  0  0  0
   17.2155    0.2337   57.2898 C   0  0  0  0  0  0  0  0  0  0  0  0
   19.4793   -0.3440   56.6743 C   0  0  0  0  0  0  0  0  0  0  0  0
   18.5205   -1.2198   58.7117 C   0  0  0  0  0  0  0  0  0  0  0  0
   17.3309   -0.5428   58.4429 C   0  0  0  0  0  0  0  0  0  0  0  0
   19.5947   -1.1204   57.8274 C   0  0  0  0  0  0  0  0  0  0  0  0
   21.7943   -1.6796   57.1167 C   0  0  0  0  0  0  0  0  0  0  0  0
   20.7554   -1.7816   58.0892 O   0  0  0  0  0  0  0  0  0  0  0  0
   12.3483    1.1252   58.3360 O   0  0  0  0  0  0  0  0  0  0  0  0
   11.2067    0.6328   57.6406 C   0  0  0  0  0  0  0  0  0  0  0  0
   11.3715   -0.8696   57.4320 C   0  0  0  0  0  0  0  0  0  0  0  0
   12.5565   -1.2461   56.5493 C   0  0  0  0  0  0  0  0  0  0  0  0
   13.9137    0.4126   55.2808 C   0  0  0  0  0  0  0  0  0  0  0  0
   12.3755   -1.1253   54.0686 C   0  0  0  0  0  0  0  0  0  0  0  0
   12.6269   -0.3721   55.3517 N   0  0  0  0  0  0  0  0  0  0  0  0
   11.8687    0.3275   55.4262 H   0  0  0  0  0  0  0  0  0  0  0  0
   10.1822   -1.3994   56.8443 O   0  0  0  0  0  0  0  0  0  0  0  0
    9.0957   -1.4709   57.6715 C   0  0  0  0  0  0  0  0  0  0  0  0
    8.0126   -0.9364   57.4773 O   0  0  0  0  0  0  0  0  0  0  0  0
    9.4514   -2.3124   58.8780 C   0  0  0  0  0  0  0  0  0  0  0  0
    8.7409   -1.8571   60.1469 C   0  0  0  0  0  0  0  0  0  0  0  0
    8.9346   -2.7266   61.3953 C   0  0  0  0  0  0  0  0  0  0  0  0
    8.9880   -3.9735   61.2132 O   0  0  0  0  0  0  0  0  0  0  0  0
    9.0232   -2.0693   62.4726 O   0  0  0  0  0  0  0  0  0  0  0  0
  1  2  1  0  0  0
  1  3  2  0  0  0
  2  4  2  0  0  0
  9 10  1  0  0  0
  9 11  2  0  0  0
  3  5  1  0  0  0
 10 13  2  0  0  0
  4  6  1  0  0  0
 11 14  1  0  0  0
 12 13  1  0  0  0
 12 14  2  0  0  0
 13  8  1  0  0  0
  5  6  2  0  0  0
  5  7  1  0  0  0
 14 16  1  0  0  0
  6 17  1  0  0  0
 30 29  1  0  0  0
 30 31  1  0  0  0
 30 32  2  0  0  0
 26 28  1  0  0  0
 26 27  2  0  0  0
 26 25  1  0  0  0
 21 23  1  0  0  0
 22 23  1  0  0  0
 15 16  1  0  0  0
  8  7  1  0  0  0
 29 28  1  0  0  0
 20 19  1  0  0  0
 20 23  1  0  0  0
 18 19  1  0  0  0
 18 17  1  0  0  0
 19 25  1  0  0  0
 23 24  1  0  0  0
M  CHG 1  23   1
M  CHG 1  31  -1
M  END
> <minimizedAffinity>
-7.72901

> <CNNscore>
0.2344750613

> <CNNaffinity>
6.2985658646

> <CNN_VS>
1.4768565893

> <CNNaffinity_variance>
0.1240261644

$$$$



 32 33  0  0  0  0  0  0  0  0999 V2000
   11.1613    3.3485   59.9368 C   0  0  0  0  0  0  0  0  0  0  0  0
   10.5398    3.2058   61.1774 C   0  0  0  0  0  0  0  0  0  0  0  0
   11.4603    2.2206   59.1726 C   0  0  0  0  0  0  0  0  0  0  0  0
   10.2174    1.9350   61.6538 C   0  0  0  0  0  0  0  0  0  0  0  0
   11.1378    0.9498   59.6490 C   0  0  0  0  0  0  0  0  0  0  0  0
   10.5164    0.8071   60.8896 C   0  0  0  0  0  0  0  0  0  0  0  0
   11.4657   -0.2461   58.8177 C   0  0  0  0  0  0  0  0  0  0  0  0
   11.1620   -0.0689   57.3175 C   0  0  0  0  0  0  0  0  0  0  0  0
   13.0697   -1.5401   54.3804 C   0  0  0  0  0  0  0  0  0  0  0  0
   12.0221   -1.1319   55.2058 C   0  0  0  0  0  0  0  0  0  0  0  0
   14.3911   -1.3276   54.7738 C   0  0  0  0  0  0  0  0  0  0  0  0
   13.6170   -0.2985   56.8180 C   0  0  0  0  0  0  0  0  0  0  0  0
   12.2957   -0.5110   56.4247 C   0  0  0  0  0  0  0  0  0  0  0  0
   14.6647   -0.7068   55.9925 C   0  0  0  0  0  0  0  0  0  0  0  0
   16.2599    0.7592   56.9733 C   0  0  0  0  0  0  0  0  0  0  0  0
   15.9541   -0.5001   56.3765 O   0  0  0  0  0  0  0  0  0  0  0  0
   10.1939   -0.4330   61.3722 O   0  0  0  0  0  0  0  0  0  0  0  0
    9.6381   -0.4848   62.6828 C   0  0  0  0  0  0  0  0  0  0  0  0
    8.8563   -1.7866   62.8313 C   0  0  0  0  0  0  0  0  0  0  0  0
    9.1114   -2.5159   64.1459 C   0  0  0  0  0  0  0  0  0  0  0  0
    8.5062   -1.1753   66.1556 C   0  0  0  0  0  0  0  0  0  0  0  0
    6.7534   -1.7981   64.5002 C   0  0  0  0  0  0  0  0  0  0  0  0
    8.0581   -2.2000   65.1428 N   0  0  0  0  0  0  0  0  0  0  0  0
    7.8600   -3.0631   65.6772 H   0  0  0  0  0  0  0  0  0  0  0  0
    9.1890   -2.6641   61.7543 O   0  0  0  0  0  0  0  0  0  0  0  0
    8.1284   -3.1666   61.0525 C   0  0  0  0  0  0  0  0  0  0  0  0
    6.9684   -3.2042   61.4389 O   0  0  0  0  0  0  0  0  0  0  0  0
    8.6225   -3.6819   59.7180 C   0  0  0  0  0  0  0  0  0  0  0  0
    8.8602   -2.5683   58.7054 C   0  0  0  0  0  0  0  0  0  0  0  0
    7.6908   -1.6102   58.4469 C   0  0  0  0  0  0  0  0  0  0  0  0
    6.6129   -2.1287   58.0468 O   0  0  0  0  0  0  0  0  0  0  0  0
    7.9590   -0.3955   58.6774 O   0  0  0  0  0  0  0  0  0  0  0  0
  1  2  1  0  0  0
  1  3  2  0  0  0
  2  4  2  0  0  0
  9 10  1  0  0  0
  9 11  2  0  0  0
  3  5  1  0  0  0
 10 13  2  0  0  0
  4  6  1  0  0  0
 11 14  1  0  0  0
 12 13  1  0  0  0
 12 14  2  0  0  0
 13  8  1  0  0  0
  5  6  2  0  0  0
  5  7  1  0  0  0
 14 16  1  0  0  0
  6 17  1  0  0  0
 30 29  1  0  0  0
 30 31  1  0  0  0
 30 32  2  0  0  0
 26 28  1  0  0  0
 26 27  2  0  0  0
 26 25  1  0  0  0
 21 23  1  0  0  0
 22 23  1  0  0  0
 15 16  1  0  0  0
  8  7  1  0  0  0
 29 28  1  0  0  0
 20 19  1  0  0  0
 20 23  1  0  0  0
 18 19  1  0  0  0
 18 17  1  0  0  0
 19 25  1  0  0  0
 23 24  1  0  0  0
M  CHG 1  23   1
M  CHG 1  31  -1
M  END
> <minimizedAffinity>
-7.55379

> <CNNscore>
0.2098852992

> <CNNaffinity>
5.9523324966

> <CNN_VS>
1.2493070364

> <CNNaffinity_variance>
0.3063438535

$$$$



 38 40  0  0  0  0  0  0  0  0999 V2000
   16.1609    1.5910   58.2711 C   0  0  0  0  0  0  0  0  0  0  0  0
   15.4036   -0.7717   57.9722 C   0  0  0  0  0  0  0  0  0  0  0  0
   16.2380    1.3815   59.7810 C   0  0  0  0  0  0  0  0  0  0  0  0
   15.5293   -1.0034   59.4717 C   0  0  0  0  0  0  0  0  0  0  0  0
   16.3911    0.3001   57.4494 C   0  0  0  0  0  0  0  0  0  0  0  0
   15.2733    0.2974   60.1927 N   0  0  0  0  0  0  0  0  0  0  0  0
   14.3305    0.6127   59.9266 H   0  0  0  0  0  0  0  0  0  0  0  0
   18.6170    0.0786   56.2577 C   0  0  0  0  0  0  0  0  0  0  0  0
   18.3590   -0.9671   58.4204 C   0  0  0  0  0  0  0  0  0  0  0  0
   19.9295   -0.3884   56.1885 C   0  0  0  0  0  0  0  0  0  0  0  0
   19.6715   -1.4342   58.3511 C   0  0  0  0  0  0  0  0  0  0  0  0
   17.8317   -0.2107   57.3737 C   0  0  0  0  0  0  0  0  0  0  0  0
   20.4568   -1.1448   57.2351 C   0  0  0  0  0  0  0  0  0  0  0  0
   22.0759   -1.7209   57.1494 Cl  0  0  0  0  0  0  0  0  0  0  0  0
   16.0365    0.6037   56.0896 O   0  0  0  0  0  0  0  0  0  0  0  0
   14.8097    0.1621   55.6903 C   0  0  0  0  0  0  0  0  0  0  0  0
   13.7380    0.4236   56.2209 O   0  0  0  0  0  0  0  0  0  0  0  0
   14.9525   -0.7347   54.4875 C   0  0  0  0  0  0  0  0  0  0  0  0
   13.6022   -0.9547   53.8163 C   0  0  0  0  0  0  0  0  0  0  0  0
   13.3144    0.1289   52.7771 C   0  0  0  0  0  0  0  0  0  0  0  0
   14.1822    1.3670   53.0090 C   0  0  0  0  0  0  0  0  0  0  0  0
   13.6195    2.5867   52.2753 C   0  0  0  0  0  0  0  0  0  0  0  0
   14.7316    3.3785   51.5839 C   0  0  0  0  0  0  0  0  0  0  0  0
   14.5438    3.4962   50.0688 C   0  0  0  0  0  0  0  0  0  0  0  0
   12.3944    4.8018   49.9209 C   0  0  0  0  0  0  0  0  0  0  0  0
   13.8889    4.8088   49.6372 C   0  0  0  0  0  0  0  0  0  0  0  0
   15.2514    0.1106   61.6849 C   0  0  0  0  0  0  0  0  0  0  0  0
   14.3985   -1.1027   62.0228 C   0  0  0  0  0  0  0  0  0  0  0  0
   12.9683   -0.9292   61.5092 C   0  0  0  0  0  0  0  0  0  0  0  0
   12.1980    0.1205   62.2959 C   0  0  0  0  0  0  0  0  0  0  0  0
   12.4109    0.3288   63.4882 O   0  0  0  0  0  0  0  0  0  0  0  0
   11.3669    1.3465   60.2806 C   0  0  0  0  0  0  0  0  0  0  0  0
    9.9632    1.2428   62.2443 C   0  0  0  0  0  0  0  0  0  0  0  0
   10.3907    2.0943   59.6224 C   0  0  0  0  0  0  0  0  0  0  0  0
    8.9870    1.9907   61.5861 C   0  0  0  0  0  0  0  0  0  0  0  0
   11.1531    0.9206   61.5916 C   0  0  0  0  0  0  0  0  0  0  0  0
    9.2008    2.4165   60.2750 C   0  0  0  0  0  0  0  0  0  0  0  0
    8.2635    3.1347   59.6429 F   0  0  0  0  0  0  0  0  0  0  0  0
 32 34  2  0  0  0
 32 36  1  0  0  0
 33 35  1  0  0  0
 33 36  2  0  0  0
  8 10  2  0  0  0
  8 12  1  0  0  0
  9 11  1  0  0  0
  9 12  2  0  0  0
 34 37  1  0  0  0
 35 37  2  0  0  0
 10 13  1  0  0  0
 11 13  2  0  0  0
 36 30  1  0  0  0
 12  5  1  0  0  0
 37 38  1  0  0  0
 13 14  1  0  0  0
 30 29  1  0  0  0
 30 31  2  0  0  0
 16 18  1  0  0  0
 16 17  2  0  0  0
 16 15  1  0  0  0
  1  3  1  0  0  0
  1  5  1  0  0  0
  2  4  1  0  0  0
  2  5  1  0  0  0
  3  6  1  0  0  0
  4  6  1  0  0  0
  5 15  1  0  0  0
 25 26  1  0  0  0
 29 28  1  0  0  0
 18 19  1  0  0  0
 26 24  1  0  0  0
 28 27  1  0  0  0
 19 20  1  0  0  0
 24 23  1  0  0  0
 20 21  1  0  0  0
 23 22  1  0  0  0
 21 22  1  0  0  0
 27  6  1  0  0  0
  6  7  1  0  0  0
M  CHG 1   6   1
M  END
> <minimizedAffinity>
-9.00761

> <CNNscore>
0.7571784854

> <CNNaffinity>
8.1499099731

> <CNN_VS>
6.1709365845

> <CNNaffinity_variance>
0.0842806399

$$$$



 38 40  0  0  0  0  0  0  0  0999 V2000
   10.5228    1.9865   60.6660 C   0  0  0  0  0  0  0  0  0  0  0  0
   10.1688   -0.4863   60.5924 C   0  0  0  0  0  0  0  0  0  0  0  0
   10.6538    1.9286   62.1856 C   0  0  0  0  0  0  0  0  0  0  0  0
   10.3513   -0.5589   62.1023 C   0  0  0  0  0  0  0  0  0  0  0  0
   10.9555    0.6835   59.9521 C   0  0  0  0  0  0  0  0  0  0  0  0
    9.8902    0.7406   62.7156 N   0  0  0  0  0  0  0  0  0  0  0  0
    8.9044    0.8699   62.4498 H   0  0  0  0  0  0  0  0  0  0  0  0
   13.0679   -0.4094   60.8281 C   0  0  0  0  0  0  0  0  0  0  0  0
   13.2247    0.9941   58.8678 C   0  0  0  0  0  0  0  0  0  0  0  0
   14.4397   -0.6533   60.7632 C   0  0  0  0  0  0  0  0  0  0  0  0
   14.5966    0.7503   58.8030 C   0  0  0  0  0  0  0  0  0  0  0  0
   12.4603    0.4142   59.8804 C   0  0  0  0  0  0  0  0  0  0  0  0
   15.2040   -0.0735   59.7508 C   0  0  0  0  0  0  0  0  0  0  0  0
   16.8963   -0.3743   59.6710 Cl  0  0  0  0  0  0  0  0  0  0  0  0
   10.5372    0.8013   58.5817 O   0  0  0  0  0  0  0  0  0  0  0  0
    9.6684   -0.1565   58.1488 C   0  0  0  0  0  0  0  0  0  0  0  0
    8.4554   -0.1618   58.3137 O   0  0  0  0  0  0  0  0  0  0  0  0
   10.4222   -1.2515   57.4388 C   0  0  0  0  0  0  0  0  0  0  0  0
   10.9993   -0.7426   56.1234 C   0  0  0  0  0  0  0  0  0  0  0  0
   12.4466   -1.1985   55.9375 C   0  0  0  0  0  0  0  0  0  0  0  0
   12.7153   -1.6223   54.4925 C   0  0  0  0  0  0  0  0  0  0  0  0
   14.0888   -1.1420   54.0177 C   0  0  0  0  0  0  0  0  0  0  0  0
   14.4706    0.1841   54.6791 C   0  0  0  0  0  0  0  0  0  0  0  0
   15.9675    0.4962   54.5981 C   0  0  0  0  0  0  0  0  0  0  0  0
   17.5100    1.2104   56.4575 C   0  0  0  0  0  0  0  0  0  0  0  0
   16.7496    0.0498   55.8339 C   0  0  0  0  0  0  0  0  0  0  0  0
    9.9196    0.6869   64.2184 C   0  0  0  0  0  0  0  0  0  0  0  0
    8.5350    1.0150   64.7560 C   0  0  0  0  0  0  0  0  0  0  0  0
    8.2166    0.1822   65.9988 C   0  0  0  0  0  0  0  0  0  0  0  0
    8.6484   -1.2683   65.8454 C   0  0  0  0  0  0  0  0  0  0  0  0
    9.5357   -1.7618   66.5378 O   0  0  0  0  0  0  0  0  0  0  0  0
    8.7094   -3.0166   64.0579 C   0  0  0  0  0  0  0  0  0  0  0  0
    6.5913   -2.0026   64.6263 C   0  0  0  0  0  0  0  0  0  0  0  0
    8.0739   -3.8071   63.1004 C   0  0  0  0  0  0  0  0  0  0  0  0
    5.9558   -2.7931   63.6689 C   0  0  0  0  0  0  0  0  0  0  0  0
    7.9680   -2.1144   64.8209 C   0  0  0  0  0  0  0  0  0  0  0  0
    6.6971   -3.6954   62.9059 C   0  0  0  0  0  0  0  0  0  0  0  0
    6.0869   -4.4545   61.9863 F   0  0  0  0  0  0  0  0  0  0  0  0
 32 34  2  0  0  0
 32 36  1  0  0  0
 33 35  1  0  0  0
 33 36  2  0  0  0
  8 10  2  0  0  0
  8 12  1  0  0  0
  9 11  1  0  0  0
  9 12  2  0  0  0
 34 37  1  0  0  0
 35 37  2  0  0  0
 10 13  1  0  0  0
 11 13  2  0  0  0
 36 30  1  0  0  0
 12  5  1  0  0  0
 37 38  1  0  0  0
 13 14  1  0  0  0
 30 29  1  0  0  0
 30 31  2  0  0  0
 16 18  1  0  0  0
 16 17  2  0  0  0
 16 15  1  0  0  0
  1  3  1  0  0  0
  1  5  1  0  0  0
  2  4  1  0  0  0
  2  5  1  0  0  0
  3  6  1  0  0  0
  4  6  1  0  0  0
  5 15  1  0  0  0
 25 26  1  0  0  0
 29 28  1  0  0  0
 18 19  1  0  0  0
 26 24  1  0  0  0
 28 27  1  0  0  0
 19 20  1  0  0  0
 24 23  1  0  0  0
 20 21  1  0  0  0
 23 22  1  0  0  0
 21 22  1  0  0  0
 27  6  1  0  0  0
  6  7  1  0  0  0
M  CHG 1   6   1
M  END
> <minimizedAffinity>
-9.14150

> <CNNscore>
0.6832084656

> <CNNaffinity>
7.8727746010

> <CNN_VS>
5.3787460327

> <CNNaffinity_variance>
0.1206297055

$$$$



 38 40  0  0  0  0  0  0  0  0999 V2000
   10.8445    1.8037   60.5842 C   0  0  0  0  0  0  0  0  0  0  0  0
   11.7587   -0.1131   61.9014 C   0  0  0  0  0  0  0  0  0  0  0  0
   11.8523    1.5277   59.4716 C   0  0  0  0  0  0  0  0  0  0  0  0
   12.7310   -0.4271   60.7726 C   0  0  0  0  0  0  0  0  0  0  0  0
   10.4521    0.5467   61.3969 C   0  0  0  0  0  0  0  0  0  0  0  0
   13.0717    0.8521   60.0479 N   0  0  0  0  0  0  0  0  0  0  0  0
   13.4768    1.4961   60.7409 H   0  0  0  0  0  0  0  0  0  0  0  0
    8.9831   -0.1461   59.4512 C   0  0  0  0  0  0  0  0  0  0  0  0
    9.1990   -1.6547   61.3259 C   0  0  0  0  0  0  0  0  0  0  0  0
    8.1302   -1.0519   58.8206 C   0  0  0  0  0  0  0  0  0  0  0  0
    8.3460   -2.5605   60.6953 C   0  0  0  0  0  0  0  0  0  0  0  0
    9.5176   -0.4475   60.7038 C   0  0  0  0  0  0  0  0  0  0  0  0
    7.8116   -2.2590   59.4425 C   0  0  0  0  0  0  0  0  0  0  0  0
    6.7593   -3.3761   58.6645 Cl  0  0  0  0  0  0  0  0  0  0  0  0
    9.7160    1.0055   62.5434 O   0  0  0  0  0  0  0  0  0  0  0  0
   10.4315    1.1022   63.7002 C   0  0  0  0  0  0  0  0  0  0  0  0
   11.5836    1.5019   63.8079 O   0  0  0  0  0  0  0  0  0  0  0  0
    9.6011    0.6170   64.8605 C   0  0  0  0  0  0  0  0  0  0  0  0
    8.1204    0.8735   64.6076 C   0  0  0  0  0  0  0  0  0  0  0  0
    7.2466    0.1311   65.6186 C   0  0  0  0  0  0  0  0  0  0  0  0
    7.4265   -1.3835   65.5036 C   0  0  0  0  0  0  0  0  0  0  0  0
    6.3432   -2.0075   64.6207 C   0  0  0  0  0  0  0  0  0  0  0  0
    5.0430   -1.2032   64.6880 C   0  0  0  0  0  0  0  0  0  0  0  0
    3.7946   -2.0376   64.3879 C   0  0  0  0  0  0  0  0  0  0  0  0
    3.5393   -4.2109   65.6362 C   0  0  0  0  0  0  0  0  0  0  0  0
    4.0591   -3.5436   64.3719 C   0  0  0  0  0  0  0  0  0  0  0  0
   14.1314    0.6335   59.0033 C   0  0  0  0  0  0  0  0  0  0  0  0
   15.4177    0.1899   59.6835 C   0  0  0  0  0  0  0  0  0  0  0  0
   16.2412   -0.7145   58.7651 C   0  0  0  0  0  0  0  0  0  0  0  0
   17.2020    0.0763   57.8901 C   0  0  0  0  0  0  0  0  0  0  0  0
   16.8932    1.1569   57.3930 O   0  0  0  0  0  0  0  0  0  0  0  0
   19.2315   -0.1693   56.4492 C   0  0  0  0  0  0  0  0  0  0  0  0
   19.1634   -1.3174   58.5739 C   0  0  0  0  0  0  0  0  0  0  0  0
   20.5022   -0.6914   56.2079 C   0  0  0  0  0  0  0  0  0  0  0  0
   20.4341   -1.8394   58.3327 C   0  0  0  0  0  0  0  0  0  0  0  0
   18.5621   -0.4823   57.6323 C   0  0  0  0  0  0  0  0  0  0  0  0
   21.1036   -1.5264   57.1497 C   0  0  0  0  0  0  0  0  0  0  0  0
   22.3238   -2.0277   56.9179 F   0  0  0  0  0  0  0  0  0  0  0  0
 32 34  2  0  0  0
 32 36  1  0  0  0
 33 35  1  0  0  0
 33 36  2  0  0  0
  8 10  2  0  0  0
  8 12  1  0  0  0
  9 11  1  0  0  0
  9 12  2  0  0  0
 34 37  1  0  0  0
 35 37  2  0  0  0
 10 13  1  0  0  0
 11 13  2  0  0  0
 36 30  1  0  0  0
 12  5  1  0  0  0
 37 38  1  0  0  0
 13 14  1  0  0  0
 30 29  1  0  0  0
 30 31  2  0  0  0
 16 18  1  0  0  0
 16 17  2  0  0  0
 16 15  1  0  0  0
  1  3  1  0  0  0
  1  5  1  0  0  0
  2  4  1  0  0  0
  2  5  1  0  0  0
  3  6  1  0  0  0
  4  6  1  0  0  0
  5 15  1  0  0  0
 25 26  1  0  0  0
 29 28  1  0  0  0
 18 19  1  0  0  0
 26 24  1  0  0  0
 28 27  1  0  0  0
 19 20  1  0  0  0
 24 23  1  0  0  0
 20 21  1  0  0  0
 23 22  1  0  0  0
 21 22  1  0  0  0
 27  6  1  0  0  0
  6  7  1  0  0  0
M  CHG 1   6   1
M  END
> <minimizedAffinity>
-10.13745

> <CNNscore>
0.4473106265

> <CNNaffinity>
7.2519273758

> <CNN_VS>
3.2438640594

> <CNNaffinity_variance>
0.1741018742

$$$$



 38 40  0  0  0  0  0  0  0  0999 V2000
   10.4594    2.0817   60.7216 C   0  0  0  0  0  0  0  0  0  0  0  0
   10.1631   -0.3995   60.6888 C   0  0  0  0  0  0  0  0  0  0  0  0
   10.5897    2.0520   62.2421 C   0  0  0  0  0  0  0  0  0  0  0  0
   10.3453   -0.4428   62.1998 C   0  0  0  0  0  0  0  0  0  0  0  0
   10.9232    0.7774   60.0299 C   0  0  0  0  0  0  0  0  0  0  0  0
    9.8532    0.8556   62.7911 N   0  0  0  0  0  0  0  0  0  0  0  0
    8.8651    0.9575   62.5223 H   0  0  0  0  0  0  0  0  0  0  0  0
   13.2202    1.2951   59.0919 C   0  0  0  0  0  0  0  0  0  0  0  0
   13.0245   -0.4268   60.7753 C   0  0  0  0  0  0  0  0  0  0  0  0
   14.5969    1.0792   59.0312 C   0  0  0  0  0  0  0  0  0  0  0  0
   14.4012   -0.6428   60.7145 C   0  0  0  0  0  0  0  0  0  0  0  0
   12.4340    0.5421   59.9640 C   0  0  0  0  0  0  0  0  0  0  0  0
   15.1874    0.1103   59.8424 C   0  0  0  0  0  0  0  0  0  0  0  0
   16.8857   -0.1559   59.7671 Cl  0  0  0  0  0  0  0  0  0  0  0  0
   10.5041    0.8627   58.6574 O   0  0  0  0  0  0  0  0  0  0  0  0
    9.6176   -0.0918   58.2539 C   0  0  0  0  0  0  0  0  0  0  0  0
    8.4073   -0.0798   58.4370 O   0  0  0  0  0  0  0  0  0  0  0  0
   10.3478   -1.2076   57.5516 C   0  0  0  0  0  0  0  0  0  0  0  0
   10.2721   -1.0329   56.0396 C   0  0  0  0  0  0  0  0  0  0  0  0
   11.6586   -0.8118   55.4350 C   0  0  0  0  0  0  0  0  0  0  0  0
   12.7633   -1.1497   56.4377 C   0  0  0  0  0  0  0  0  0  0  0  0
   14.0208   -1.6598   55.7297 C   0  0  0  0  0  0  0  0  0  0  0  0
   15.2614   -0.8838   56.1775 C   0  0  0  0  0  0  0  0  0  0  0  0
   15.4224    0.4663   55.4731 C   0  0  0  0  0  0  0  0  0  0  0  0
   14.1739    1.4694   53.5284 C   0  0  0  0  0  0  0  0  0  0  0  0
   15.1640    0.4012   53.9673 C   0  0  0  0  0  0  0  0  0  0  0  0
    9.8819    0.8275   64.2945 C   0  0  0  0  0  0  0  0  0  0  0  0
    8.4747    1.0580   64.8242 C   0  0  0  0  0  0  0  0  0  0  0  0
    8.1923    0.1708   66.0377 C   0  0  0  0  0  0  0  0  0  0  0  0
    8.6565   -1.2619   65.8233 C   0  0  0  0  0  0  0  0  0  0  0  0
    9.5934   -1.7457   66.4544 O   0  0  0  0  0  0  0  0  0  0  0  0
    6.5659   -1.9821   64.6544 C   0  0  0  0  0  0  0  0  0  0  0  0
    8.6630   -3.0077   64.0319 C   0  0  0  0  0  0  0  0  0  0  0  0
    5.9021   -2.7673   63.7119 C   0  0  0  0  0  0  0  0  0  0  0  0
    7.9993   -3.7929   63.0894 C   0  0  0  0  0  0  0  0  0  0  0  0
    7.9464   -2.1022   64.8144 C   0  0  0  0  0  0  0  0  0  0  0  0
    6.6188   -3.6727   62.9294 C   0  0  0  0  0  0  0  0  0  0  0  0
    5.9814   -4.4268   62.0243 F   0  0  0  0  0  0  0  0  0  0  0  0
 32 34  2  0  0  0
 32 36  1  0  0  0
 33 35  1  0  0  0
 33 36  2  0  0  0
  8 10  2  0  0  0
  8 12  1  0  0  0
  9 11  1  0  0  0
  9 12  2  0  0  0
 34 37  1  0  0  0
 35 37  2  0  0  0
 10 13  1  0  0  0
 11 13  2  0  0  0
 36 30  1  0  0  0
 12  5  1  0  0  0
 37 38  1  0  0  0
 13 14  1  0  0  0
 30 29  1  0  0  0
 30 31  2  0  0  0
 16 18  1  0  0  0
 16 17  2  0  0  0
 16 15  1  0  0  0
  1  3  1  0  0  0
  1  5  1  0  0  0
  2  4  1  0  0  0
  2  5  1  0  0  0
  3  6  1  0  0  0
  4  6  1  0  0  0
  5 15  1  0  0  0
 25 26  1  0  0  0
 29 28  1  0  0  0
 18 19  1  0  0  0
 26 24  1  0  0  0
 28 27  1  0  0  0
 19 20  1  0  0  0
 24 23  1  0  0  0
 20 21  1  0  0  0
 23 22  1  0  0  0
 21 22  1  0  0  0
 27  6  1  0  0  0
  6  7  1  0  0  0
M  CHG 1   6   1
M  END
> <minimizedAffinity>
-9.03737

> <CNNscore>
0.4094911814

> <CNNaffinity>
7.6554384232

> <CNN_VS>
3.1348345280

> <CNNaffinity_variance>
0.1428278983

$$$$



 38 40  0  0  0  0  0  0  0  0999 V2000
   16.2029    1.6595   58.2126 C   0  0  0  0  0  0  0  0  0  0  0  0
   15.4166   -0.6633   57.7313 C   0  0  0  0  0  0  0  0  0  0  0  0
   16.2179    1.3510   59.7074 C   0  0  0  0  0  0  0  0  0  0  0  0
   15.4802   -0.9942   59.2161 C   0  0  0  0  0  0  0  0  0  0  0  0
   16.4420    0.4202   57.3172 C   0  0  0  0  0  0  0  0  0  0  0  0
   15.2193    0.2620   60.0107 N   0  0  0  0  0  0  0  0  0  0  0  0
   14.2931    0.6125   59.7308 H   0  0  0  0  0  0  0  0  0  0  0  0
   18.6793    0.1592   56.1551 C   0  0  0  0  0  0  0  0  0  0  0  0
   18.3774   -0.8732   58.3185 C   0  0  0  0  0  0  0  0  0  0  0  0
   19.9851   -0.3285   56.1047 C   0  0  0  0  0  0  0  0  0  0  0  0
   19.6833   -1.3609   58.2680 C   0  0  0  0  0  0  0  0  0  0  0  0
   17.8754   -0.1131   57.2621 C   0  0  0  0  0  0  0  0  0  0  0  0
   20.4871   -1.0885   57.1610 C   0  0  0  0  0  0  0  0  0  0  0  0
   22.0980   -1.6901   57.0984 Cl  0  0  0  0  0  0  0  0  0  0  0  0
   16.1456    0.8184   55.9680 O   0  0  0  0  0  0  0  0  0  0  0  0
   15.2457    0.0341   55.3087 C   0  0  0  0  0  0  0  0  0  0  0  0
   15.4957   -0.9935   54.6921 O   0  0  0  0  0  0  0  0  0  0  0  0
   13.8652    0.6278   55.4232 C   0  0  0  0  0  0  0  0  0  0  0  0
   12.8001   -0.4380   55.1953 C   0  0  0  0  0  0  0  0  0  0  0  0
   11.9761   -0.6803   56.4600 C   0  0  0  0  0  0  0  0  0  0  0  0
   11.9474    0.5620   57.3521 C   0  0  0  0  0  0  0  0  0  0  0  0
   10.6653    0.6189   58.1862 C   0  0  0  0  0  0  0  0  0  0  0  0
   10.2998    2.0618   58.5417 C   0  0  0  0  0  0  0  0  0  0  0  0
   11.2458    2.6949   59.5659 C   0  0  0  0  0  0  0  0  0  0  0  0
    9.2409    2.4537   61.0720 C   0  0  0  0  0  0  0  0  0  0  0  0
   10.5309    3.2170   60.8127 C   0  0  0  0  0  0  0  0  0  0  0  0
   15.1366   -0.0208   61.4856 C   0  0  0  0  0  0  0  0  0  0  0  0
   13.8814   -0.8324   61.7678 C   0  0  0  0  0  0  0  0  0  0  0  0
   12.6231   -0.0424   61.4045 C   0  0  0  0  0  0  0  0  0  0  0  0
   11.6763    0.1065   62.5859 C   0  0  0  0  0  0  0  0  0  0  0  0
   11.8917    0.9005   63.4987 O   0  0  0  0  0  0  0  0  0  0  0  0
    9.7059   -0.8297   63.8092 C   0  0  0  0  0  0  0  0  0  0  0  0
   10.0419   -1.4422   61.4963 C   0  0  0  0  0  0  0  0  0  0  0  0
    8.5581   -1.6211   63.8519 C   0  0  0  0  0  0  0  0  0  0  0  0
    8.8941   -2.2335   61.5390 C   0  0  0  0  0  0  0  0  0  0  0  0
   10.4478   -0.7403   62.6313 C   0  0  0  0  0  0  0  0  0  0  0  0
    8.1521   -2.3229   62.7168 C   0  0  0  0  0  0  0  0  0  0  0  0
    7.0499   -3.0829   62.7579 F   0  0  0  0  0  0  0  0  0  0  0  0
 32 34  2  0  0  0
 32 36  1  0  0  0
 33 35  1  0  0  0
 33 36  2  0  0  0
  8 10  2  0  0  0
  8 12  1  0  0  0
  9 11  1  0  0  0
  9 12  2  0  0  0
 34 37  1  0  0  0
 35 37  2  0  0  0
 10 13  1  0  0  0
 11 13  2  0  0  0
 36 30  1  0  0  0
 12  5  1  0  0  0
 37 38  1  0  0  0
 13 14  1  0  0  0
 30 29  1  0  0  0
 30 31  2  0  0  0
 16 18  1  0  0  0
 16 17  2  0  0  0
 16 15  1  0  0  0
  1  3  1  0  0  0
  1  5  1  0  0  0
  2  4  1  0  0  0
  2  5  1  0  0  0
  3  6  1  0  0  0
  4  6  1  0  0  0
  5 15  1  0  0  0
 25 26  1  0  0  0
 29 28  1  0  0  0
 18 19  1  0  0  0
 26 24  1  0  0  0
 28 27  1  0  0  0
 19 20  1  0  0  0
 24 23  1  0  0  0
 20 21  1  0  0  0
 23 22  1  0  0  0
 21 22  1  0  0  0
 27  6  1  0  0  0
  6  7  1  0  0  0
M  CHG 1   6   1
M  END
> <minimizedAffinity>
-9.33801

> <CNNscore>
0.3875353634

> <CNNaffinity>
7.4990310669

> <CNN_VS>
2.9061396122

> <CNNaffinity_variance>
0.3350118101

$$$$



 38 40  0  0  0  0  0  0  0  0999 V2000
   10.8748    1.7644   60.7086 C   0  0  0  0  0  0  0  0  0  0  0  0
   11.9136   -0.2900   61.6809 C   0  0  0  0  0  0  0  0  0  0  0  0
   11.8355    1.6971   59.5245 C   0  0  0  0  0  0  0  0  0  0  0  0
   12.8393   -0.3938   60.4765 C   0  0  0  0  0  0  0  0  0  0  0  0
   10.5633    0.3858   61.3388 C   0  0  0  0  0  0  0  0  0  0  0  0
   13.1027    0.9915   59.9389 N   0  0  0  0  0  0  0  0  0  0  0  0
   13.5202    1.5403   60.7028 H   0  0  0  0  0  0  0  0  0  0  0  0
    9.4748   -1.8644   60.9202 C   0  0  0  0  0  0  0  0  0  0  0  0
    8.9318   -0.0298   59.4450 C   0  0  0  0  0  0  0  0  0  0  0  0
    8.6239   -2.6990   60.1955 C   0  0  0  0  0  0  0  0  0  0  0  0
    8.0810   -0.8644   58.7202 C   0  0  0  0  0  0  0  0  0  0  0  0
    9.6287   -0.5298   60.5450 C   0  0  0  0  0  0  0  0  0  0  0  0
    7.9271   -2.1990   59.0955 C   0  0  0  0  0  0  0  0  0  0  0  0
    6.8777   -3.2287   58.2015 Cl  0  0  0  0  0  0  0  0  0  0  0  0
    9.8696    0.6394   62.5722 O   0  0  0  0  0  0  0  0  0  0  0  0
   10.6635    0.9133   63.6466 C   0  0  0  0  0  0  0  0  0  0  0  0
   11.5789    1.7252   63.6824 O   0  0  0  0  0  0  0  0  0  0  0  0
   10.2689    0.0435   64.8125 C   0  0  0  0  0  0  0  0  0  0  0  0
    8.8211   -0.4126   64.6785 C   0  0  0  0  0  0  0  0  0  0  0  0
    8.7337   -1.9154   64.4120 C   0  0  0  0  0  0  0  0  0  0  0  0
    7.3432   -2.3122   63.9131 C   0  0  0  0  0  0  0  0  0  0  0  0
    6.2724   -2.0364   64.9713 C   0  0  0  0  0  0  0  0  0  0  0  0
    4.8667   -2.1290   64.3737 C   0  0  0  0  0  0  0  0  0  0  0  0
    4.1124   -0.7964   64.3823 C   0  0  0  0  0  0  0  0  0  0  0  0
    4.5763    1.6796   64.3584 C   0  0  0  0  0  0  0  0  0  0  0  0
    4.9059    0.3475   65.0148 C   0  0  0  0  0  0  0  0  0  0  0  0
   14.1167    0.9728   58.8283 C   0  0  0  0  0  0  0  0  0  0  0  0
   15.3131    0.1384   59.2598 C   0  0  0  0  0  0  0  0  0  0  0  0
   15.9767   -0.5339   58.0567 C   0  0  0  0  0  0  0  0  0  0  0  0
   17.1250    0.2922   57.4972 C   0  0  0  0  0  0  0  0  0  0  0  0
   16.9701    1.4494   57.1135 O   0  0  0  0  0  0  0  0  0  0  0  0
   19.2668   -0.1376   56.2791 C   0  0  0  0  0  0  0  0  0  0  0  0
   18.9614   -1.0957   58.4760 C   0  0  0  0  0  0  0  0  0  0  0  0
   20.5334   -0.7165   56.2028 C   0  0  0  0  0  0  0  0  0  0  0  0
   20.2281   -1.6746   58.3996 C   0  0  0  0  0  0  0  0  0  0  0  0
   18.4807   -0.3272   57.4158 C   0  0  0  0  0  0  0  0  0  0  0  0
   21.0142   -1.4850   57.2630 C   0  0  0  0  0  0  0  0  0  0  0  0
   22.2306   -2.0410   57.1896 F   0  0  0  0  0  0  0  0  0  0  0  0
 32 34  2  0  0  0
 32 36  1  0  0  0
 33 35  1  0  0  0
 33 36  2  0  0  0
  8 10  2  0  0  0
  8 12  1  0  0  0
  9 11  1  0  0  0
  9 12  2  0  0  0
 34 37  1  0  0  0
 35 37  2  0  0  0
 10 13  1  0  0  0
 11 13  2  0  0  0
 36 30  1  0  0  0
 12  5  1  0  0  0
 37 38  1  0  0  0
 13 14  1  0  0  0
 30 29  1  0  0  0
 30 31  2  0  0  0
 16 18  1  0  0  0
 16 17  2  0  0  0
 16 15  1  0  0  0
  1  3  1  0  0  0
  1  5  1  0  0  0
  2  4  1  0  0  0
  2  5  1  0  0  0
  3  6  1  0  0  0
  4  6  1  0  0  0
  5 15  1  0  0  0
 25 26  1  0  0  0
 29 28  1  0  0  0
 18 19  1  0  0  0
 26 24  1  0  0  0
 28 27  1  0  0  0
 19 20  1  0  0  0
 24 23  1  0  0  0
 20 21  1  0  0  0
 23 22  1  0  0  0
 21 22  1  0  0  0
 27  6  1  0  0  0
  6  7  1  0  0  0
M  CHG 1   6   1
M  END
> <minimizedAffinity>
-9.80625

> <CNNscore>
0.3814275265

> <CNNaffinity>
7.2202339172

> <CNN_VS>
2.7539958954

> <CNNaffinity_variance>
0.0809760019

$$$$



 38 40  0  0  0  0  0  0  0  0999 V2000
   10.8543    1.8219   60.7334 C   0  0  0  0  0  0  0  0  0  0  0  0
   11.9168   -0.2300   61.6851 C   0  0  0  0  0  0  0  0  0  0  0  0
   11.8521    1.8102   59.5785 C   0  0  0  0  0  0  0  0  0  0  0  0
   12.8813   -0.2785   60.5080 C   0  0  0  0  0  0  0  0  0  0  0  0
   10.5602    0.4198   61.3184 C   0  0  0  0  0  0  0  0  0  0  0  0
   13.1243    1.1267   60.0142 N   0  0  0  0  0  0  0  0  0  0  0  0
   13.5036    1.6659   60.8044 H   0  0  0  0  0  0  0  0  0  0  0  0
    9.6396   -1.8682   60.7338 C   0  0  0  0  0  0  0  0  0  0  0  0
    8.9038    0.0347   59.4397 C   0  0  0  0  0  0  0  0  0  0  0  0
    8.8336   -2.7048   59.9619 C   0  0  0  0  0  0  0  0  0  0  0  0
    8.0978   -0.8020   58.6677 C   0  0  0  0  0  0  0  0  0  0  0  0
    9.6747   -0.4984   60.4728 C   0  0  0  0  0  0  0  0  0  0  0  0
    8.0627   -2.1718   58.9288 C   0  0  0  0  0  0  0  0  0  0  0  0
    7.0686   -3.2041   57.9766 Cl  0  0  0  0  0  0  0  0  0  0  0  0
    9.8228    0.6231   62.5356 O   0  0  0  0  0  0  0  0  0  0  0  0
   10.5780    0.8337   63.6513 C   0  0  0  0  0  0  0  0  0  0  0  0
   11.4484    1.6838   63.7868 O   0  0  0  0  0  0  0  0  0  0  0  0
   10.2051   -0.1615   64.7200 C   0  0  0  0  0  0  0  0  0  0  0  0
    8.9890   -0.9764   64.2964 C   0  0  0  0  0  0  0  0  0  0  0  0
    9.0681   -2.4090   64.8240 C   0  0  0  0  0  0  0  0  0  0  0  0
    8.5190   -3.4086   63.8047 C   0  0  0  0  0  0  0  0  0  0  0  0
    7.2047   -2.9161   63.1942 C   0  0  0  0  0  0  0  0  0  0  0  0
    6.1988   -4.0602   63.0490 C   0  0  0  0  0  0  0  0  0  0  0  0
    4.8670   -3.7935   63.7560 C   0  0  0  0  0  0  0  0  0  0  0  0
    3.9683   -1.5078   64.3171 C   0  0  0  0  0  0  0  0  0  0  0  0
    4.9216   -2.6181   64.7326 C   0  0  0  0  0  0  0  0  0  0  0  0
   14.1718    1.1632   58.9356 C   0  0  0  0  0  0  0  0  0  0  0  0
   15.4559    0.5446   59.4670 C   0  0  0  0  0  0  0  0  0  0  0  0
   16.0611   -0.4241   58.4497 C   0  0  0  0  0  0  0  0  0  0  0  0
   17.0853    0.2518   57.5506 C   0  0  0  0  0  0  0  0  0  0  0  0
   16.8252    1.2725   56.9175 O   0  0  0  0  0  0  0  0  0  0  0  0
   18.9363   -1.1633   58.4600 C   0  0  0  0  0  0  0  0  0  0  0  0
   19.2329   -0.0915   56.3150 C   0  0  0  0  0  0  0  0  0  0  0  0
   20.2096   -1.7231   58.3563 C   0  0  0  0  0  0  0  0  0  0  0  0
   20.5062   -0.6514   56.2113 C   0  0  0  0  0  0  0  0  0  0  0  0
   18.4479   -0.3475   57.4393 C   0  0  0  0  0  0  0  0  0  0  0  0
   20.9946   -1.4672   57.2320 C   0  0  0  0  0  0  0  0  0  0  0  0
   22.2174   -2.0048   57.1325 F   0  0  0  0  0  0  0  0  0  0  0  0
 32 34  2  0  0  0
 32 36  1  0  0  0
 33 35  1  0  0  0
 33 36  2  0  0  0
  8 10  2  0  0  0
  8 12  1  0  0  0
  9 11  1  0  0  0
  9 12  2  0  0  0
 34 37  1  0  0  0
 35 37  2  0  0  0
 10 13  1  0  0  0
 11 13  2  0  0  0
 36 30  1  0  0  0
 12  5  1  0  0  0
 37 38  1  0  0  0
 13 14  1  0  0  0
 30 29  1  0  0  0
 30 31  2  0  0  0
 16 18  1  0  0  0
 16 17  2  0  0  0
 16 15  1  0  0  0
  1  3  1  0  0  0
  1  5  1  0  0  0
  2  4  1  0  0  0
  2  5  1  0  0  0
  3  6  1  0  0  0
  4  6  1  0  0  0
  5 15  1  0  0  0
 25 26  1  0  0  0
 29 28  1  0  0  0
 18 19  1  0  0  0
 26 24  1  0  0  0
 28 27  1  0  0  0
 19 20  1  0  0  0
 24 23  1  0  0  0
 20 21  1  0  0  0
 23 22  1  0  0  0
 21 22  1  0  0  0
 27  6  1  0  0  0
  6  7  1  0  0  0
M  CHG 1   6   1
M  END
> <minimizedAffinity>
-9.81837

> <CNNscore>
0.3515595794

> <CNNaffinity>
7.1580629349

> <CNN_VS>
2.5164856911

> <CNNaffinity_variance>
0.0585587434

$$$$



 38 40  0  0  0  0  0  0  0  0999 V2000
   11.8251    0.0256   59.4318 C   0  0  0  0  0  0  0  0  0  0  0  0
    9.9724    1.7009   59.3545 C   0  0  0  0  0  0  0  0  0  0  0  0
   11.8218    0.0834   60.9570 C   0  0  0  0  0  0  0  0  0  0  0  0
    9.9274    1.7238   60.8762 C   0  0  0  0  0  0  0  0  0  0  0  0
   10.4515    0.3403   58.7923 C   0  0  0  0  0  0  0  0  0  0  0  0
   11.3061    1.4257   61.4127 N   0  0  0  0  0  0  0  0  0  0  0  0
   11.9418    2.1403   61.0327 H   0  0  0  0  0  0  0  0  0  0  0  0
    9.5762   -1.8323   59.7607 C   0  0  0  0  0  0  0  0  0  0  0  0
    8.2217   -0.6676   58.1340 C   0  0  0  0  0  0  0  0  0  0  0  0
    8.6044   -2.8282   59.8567 C   0  0  0  0  0  0  0  0  0  0  0  0
    7.2499   -1.6637   58.2300 C   0  0  0  0  0  0  0  0  0  0  0  0
    9.3848   -0.7519   58.8993 C   0  0  0  0  0  0  0  0  0  0  0  0
    7.4413   -2.7440   59.0915 C   0  0  0  0  0  0  0  0  0  0  0  0
    6.2427   -3.9728   59.2100 Cl  0  0  0  0  0  0  0  0  0  0  0  0
   10.6760    0.4981   57.3811 O   0  0  0  0  0  0  0  0  0  0  0  0
   11.6094   -0.3349   56.8384 C   0  0  0  0  0  0  0  0  0  0  0  0
   11.5154   -1.5498   56.7219 O   0  0  0  0  0  0  0  0  0  0  0  0
   12.8173    0.4571   56.4083 C   0  0  0  0  0  0  0  0  0  0  0  0
   13.3284   -0.0308   55.0580 C   0  0  0  0  0  0  0  0  0  0  0  0
   14.6502    0.6418   54.6874 C   0  0  0  0  0  0  0  0  0  0  0  0
   15.8351   -0.2998   54.9092 C   0  0  0  0  0  0  0  0  0  0  0  0
   16.9310    0.3706   55.7411 C   0  0  0  0  0  0  0  0  0  0  0  0
   16.4533    0.6432   57.1691 C   0  0  0  0  0  0  0  0  0  0  0  0
   16.0032   -0.6180   57.9118 C   0  0  0  0  0  0  0  0  0  0  0  0
   18.2176   -1.2010   58.9622 C   0  0  0  0  0  0  0  0  0  0  0  0
   16.7587   -0.8557   59.2199 C   0  0  0  0  0  0  0  0  0  0  0  0
   11.3616    1.5632   62.9094 C   0  0  0  0  0  0  0  0  0  0  0  0
   10.8114    0.2965   63.5469 C   0  0  0  0  0  0  0  0  0  0  0  0
    9.6157    0.6095   64.4480 C   0  0  0  0  0  0  0  0  0  0  0  0
    9.1475   -0.6104   65.2268 C   0  0  0  0  0  0  0  0  0  0  0  0
    9.6616   -0.9408   66.2930 O   0  0  0  0  0  0  0  0  0  0  0  0
    8.2850   -2.4082   63.7170 C   0  0  0  0  0  0  0  0  0  0  0  0
    6.7214   -1.2088   65.1148 C   0  0  0  0  0  0  0  0  0  0  0  0
    7.2378   -3.1712   63.2004 C   0  0  0  0  0  0  0  0  0  0  0  0
    5.6742   -1.9718   64.5982 C   0  0  0  0  0  0  0  0  0  0  0  0
    8.0267   -1.4270   64.6743 C   0  0  0  0  0  0  0  0  0  0  0  0
    5.9324   -2.9530   63.6410 C   0  0  0  0  0  0  0  0  0  0  0  0
    4.9269   -3.6857   63.1448 F   0  0  0  0  0  0  0  0  0  0  0  0
 32 34  2  0  0  0
 32 36  1  0  0  0
 33 35  1  0  0  0
 33 36  2  0  0  0
  8 10  2  0  0  0
  8 12  1  0  0  0
  9 11  1  0  0  0
  9 12  2  0  0  0
 34 37  1  0  0  0
 35 37  2  0  0  0
 10 13  1  0  0  0
 11 13  2  0  0  0
 36 30  1  0  0  0
 12  5  1  0  0  0
 37 38  1  0  0  0
 13 14  1  0  0  0
 30 29  1  0  0  0
 30 31  2  0  0  0
 16 18  1  0  0  0
 16 17  2  0  0  0
 16 15  1  0  0  0
  1  3  1  0  0  0
  1  5  1  0  0  0
  2  4  1  0  0  0
  2  5  1  0  0  0
  3  6  1  0  0  0
  4  6  1  0  0  0
  5 15  1  0  0  0
 25 26  1  0  0  0
 29 28  1  0  0  0
 18 19  1  0  0  0
 26 24  1  0  0  0
 28 27  1  0  0  0
 19 20  1  0  0  0
 24 23  1  0  0  0
 20 21  1  0  0  0
 23 22  1  0  0  0
 21 22  1  0  0  0
 27  6  1  0  0  0
  6  7  1  0  0  0
M  CHG 1   6   1
M  END
> <minimizedAffinity>
-9.22654

> <CNNscore>
0.3412632048

> <CNNaffinity>
7.3754334450

> <CNN_VS>
2.5169639587

> <CNNaffinity_variance>
0.4906230569

$$$$



 38 40  0  0  0  0  0  0  0  0999 V2000
   16.1836    1.6313   58.0832 C   0  0  0  0  0  0  0  0  0  0  0  0
   15.4235   -0.6964   57.5837 C   0  0  0  0  0  0  0  0  0  0  0  0
   16.1460    1.3290   59.5788 C   0  0  0  0  0  0  0  0  0  0  0  0
   15.4349   -1.0210   59.0712 C   0  0  0  0  0  0  0  0  0  0  0  0
   16.4593    0.3893   57.2022 C   0  0  0  0  0  0  0  0  0  0  0  0
   15.1411    0.2374   59.8506 N   0  0  0  0  0  0  0  0  0  0  0  0
   14.2243    0.5833   59.5361 H   0  0  0  0  0  0  0  0  0  0  0  0
   18.3675   -0.8806   58.2838 C   0  0  0  0  0  0  0  0  0  0  0  0
   18.7336    0.1231   56.1169 C   0  0  0  0  0  0  0  0  0  0  0  0
   19.6772   -1.3604   58.2829 C   0  0  0  0  0  0  0  0  0  0  0  0
   20.0434   -0.3567   56.1160 C   0  0  0  0  0  0  0  0  0  0  0  0
   17.8956   -0.1389   57.2008 C   0  0  0  0  0  0  0  0  0  0  0  0
   20.5151   -1.0985   57.1990 C   0  0  0  0  0  0  0  0  0  0  0  0
   22.1307   -1.6905   57.1981 Cl  0  0  0  0  0  0  0  0  0  0  0  0
   16.2101    0.7809   55.8415 O   0  0  0  0  0  0  0  0  0  0  0  0
   15.2795    0.0373   55.1777 C   0  0  0  0  0  0  0  0  0  0  0  0
   15.4852   -1.0048   54.5690 O   0  0  0  0  0  0  0  0  0  0  0  0
   13.9284    0.6978   55.2756 C   0  0  0  0  0  0  0  0  0  0  0  0
   12.8162   -0.3435   55.2422 C   0  0  0  0  0  0  0  0  0  0  0  0
   11.7987   -0.1065   56.3581 C   0  0  0  0  0  0  0  0  0  0  0  0
   12.3810    0.7747   57.4645 C   0  0  0  0  0  0  0  0  0  0  0  0
   11.4570    1.9528   57.7823 C   0  0  0  0  0  0  0  0  0  0  0  0
   12.0344    2.8232   58.9007 C   0  0  0  0  0  0  0  0  0  0  0  0
   11.0381    3.1050   60.0289 C   0  0  0  0  0  0  0  0  0  0  0  0
    8.9417    2.2735   61.1514 C   0  0  0  0  0  0  0  0  0  0  0  0
    9.6868    2.4167   59.8329 C   0  0  0  0  0  0  0  0  0  0  0  0
   15.0064   -0.0396   61.3227 C   0  0  0  0  0  0  0  0  0  0  0  0
   13.7238   -0.8198   61.5677 C   0  0  0  0  0  0  0  0  0  0  0  0
   12.4931    0.0441   61.2876 C   0  0  0  0  0  0  0  0  0  0  0  0
   11.2388   -0.5110   61.9454 C   0  0  0  0  0  0  0  0  0  0  0  0
   10.9917   -0.3305   63.1356 O   0  0  0  0  0  0  0  0  0  0  0  0
   10.2755   -1.1471   59.7267 C   0  0  0  0  0  0  0  0  0  0  0  0
    9.3914   -2.1826   61.7225 C   0  0  0  0  0  0  0  0  0  0  0  0
    9.3805   -1.8818   58.9491 C   0  0  0  0  0  0  0  0  0  0  0  0
    8.4963   -2.9172   60.9450 C   0  0  0  0  0  0  0  0  0  0  0  0
   10.2810   -1.2976   61.1135 C   0  0  0  0  0  0  0  0  0  0  0  0
    8.4909   -2.7669   59.5582 C   0  0  0  0  0  0  0  0  0  0  0  0
    7.6313   -3.4723   58.8115 F   0  0  0  0  0  0  0  0  0  0  0  0
 32 34  2  0  0  0
 32 36  1  0  0  0
 33 35  1  0  0  0
 33 36  2  0  0  0
  8 10  2  0  0  0
  8 12  1  0  0  0
  9 11  1  0  0  0
  9 12  2  0  0  0
 34 37  1  0  0  0
 35 37  2  0  0  0
 10 13  1  0  0  0
 11 13  2  0  0  0
 36 30  1  0  0  0
 12  5  1  0  0  0
 37 38  1  0  0  0
 13 14  1  0  0  0
 30 29  1  0  0  0
 30 31  2  0  0  0
 16 18  1  0  0  0
 16 17  2  0  0  0
 16 15  1  0  0  0
  1  3  1  0  0  0
  1  5  1  0  0  0
  2  4  1  0  0  0
  2  5  1  0  0  0
  3  6  1  0  0  0
  4  6  1  0  0  0
  5 15  1  0  0  0
 25 26  1  0  0  0
 29 28  1  0  0  0
 18 19  1  0  0  0
 26 24  1  0  0  0
 28 27  1  0  0  0
 19 20  1  0  0  0
 24 23  1  0  0  0
 20 21  1  0  0  0
 23 22  1  0  0  0
 21 22  1  0  0  0
 27  6  1  0  0  0
  6  7  1  0  0  0
M  CHG 1   6   1
M  END
> <minimizedAffinity>
-9.06098

> <CNNscore>
0.3290471137

> <CNNaffinity>
7.4936385155

> <CNN_VS>
2.4657602310

> <CNNaffinity_variance>
0.5772877932

$$$$



 29 31  0  0  0  0  0  0  0  0999 V2000
   13.1220    2.5380   58.9867 C   0  0  0  0  0  0  0  0  0  0  0  0
   11.7466    2.7543   58.9047 C   0  0  0  0  0  0  0  0  0  0  0  0
   12.7496    0.1513   58.9414 C   0  0  0  0  0  0  0  0  0  0  0  0
   11.3740    0.3676   58.8595 C   0  0  0  0  0  0  0  0  0  0  0  0
   13.6236    1.2366   59.0050 C   0  0  0  0  0  0  0  0  0  0  0  0
   10.8724    1.6691   58.8411 C   0  0  0  0  0  0  0  0  0  0  0  0
    9.1313   -2.4719   59.1195 C   0  0  0  0  0  0  0  0  0  0  0  0
    9.8680   -1.4812   59.7958 C   0  0  0  0  0  0  0  0  0  0  0  0
   10.4853   -0.7699   58.7961 C   0  0  0  0  0  0  0  0  0  0  0  0
   10.4768   -0.9703   56.2870 C   0  0  0  0  0  0  0  0  0  0  0  0
    9.2667   -2.3995   57.7927 N   0  0  0  0  0  0  0  0  0  0  0  0
   10.0956   -1.3548   57.6273 N   0  0  0  0  0  0  0  0  0  0  0  0
    9.9364   -1.2546   61.6458 Br  0  0  0  0  0  0  0  0  0  0  0  0
   15.8415    0.3279   58.1838 C   0  0  0  0  0  0  0  0  0  0  0  0
   14.9995    1.0212   59.0875 N   0  0  0  0  0  0  0  0  0  0  0  0
   17.1655    0.3474   58.6510 N   0  0  0  0  0  0  0  0  0  0  0  0
   15.4626   -0.2083   57.1474 O   0  0  0  0  0  0  0  0  0  0  0  0
   15.4629    1.4176   59.9120 H   0  0  0  0  0  0  0  0  0  0  0  0
   17.3286    0.8312   59.5304 H   0  0  0  0  0  0  0  0  0  0  0  0
   19.0251   -1.2182   58.7202 C   0  0  0  0  0  0  0  0  0  0  0  0
   20.1534   -1.7861   58.1286 C   0  0  0  0  0  0  0  0  0  0  0  0
   19.8517   -0.3704   56.1942 C   0  0  0  0  0  0  0  0  0  0  0  0
   18.3100   -0.2265   58.0487 C   0  0  0  0  0  0  0  0  0  0  0  0
   20.5668   -1.3622   56.8656 C   0  0  0  0  0  0  0  0  0  0  0  0
   18.7233    0.1974   56.7858 C   0  0  0  0  0  0  0  0  0  0  0  0
   21.6510   -1.9071   56.2982 F   0  0  0  0  0  0  0  0  0  0  0  0
   18.0427    1.1487   56.1305 F   0  0  0  0  0  0  0  0  0  0  0  0
    8.8798    2.3332   59.9565 C   0  0  0  0  0  0  0  0  0  0  0  0
    9.5324    1.9097   58.7620 O   0  0  0  0  0  0  0  0  0  0  0  0
  1  2  2  0  0  0
  1  5  1  0  0  0
 20 21  2  0  0  0
 20 23  1  0  0  0
  2  6  1  0  0  0
 21 24  1  0  0  0
  3  4  1  0  0  0
  3  5  2  0  0  0
 22 24  2  0  0  0
 22 25  1  0  0  0
  7  8  1  0  0  0
  7 11  2  0  0  0
  4  6  2  0  0  0
  4  9  1  0  0  0
  5 15  1  0  0  0
 23 25  2  0  0  0
 23 16  1  0  0  0
  6 29  1  0  0  0
 24 26  1  0  0  0
 25 27  1  0  0  0
  8  9  2  0  0  0
  8 13  1  0  0  0
  9 12  1  0  0  0
 14 15  1  0  0  0
 14 16  1  0  0  0
 14 17  2  0  0  0
 10 12  1  0  0  0
 28 29  1  0  0  0
 11 12  1  0  0  0
 15 18  1  0  0  0
 16 19  1  0  0  0
M  END
> <minimizedAffinity>
-9.53382

> <CNNscore>
0.8087369800

> <CNNaffinity>
6.9941139221

> <CNN_VS>
5.6563987732

> <CNNaffinity_variance>
0.0505410135

$$$$



 29 31  0  0  0  0  0  0  0  0999 V2000
   12.9655    1.8246   58.5461 C   0  0  0  0  0  0  0  0  0  0  0  0
   11.5806    1.9849   58.5070 C   0  0  0  0  0  0  0  0  0  0  0  0
   12.7108    0.0063   60.1165 C   0  0  0  0  0  0  0  0  0  0  0  0
   11.3257    0.1667   60.0774 C   0  0  0  0  0  0  0  0  0  0  0  0
   13.5308    0.8352   59.3508 C   0  0  0  0  0  0  0  0  0  0  0  0
   10.7605    1.1560   59.2726 C   0  0  0  0  0  0  0  0  0  0  0  0
    9.1220   -2.1940   61.7299 C   0  0  0  0  0  0  0  0  0  0  0  0
    9.6580   -1.7281   60.5145 C   0  0  0  0  0  0  0  0  0  0  0  0
   10.4939   -0.7011   60.8790 C   0  0  0  0  0  0  0  0  0  0  0  0
   11.1062    0.3102   63.1012 C   0  0  0  0  0  0  0  0  0  0  0  0
    9.5792   -1.5185   62.7876 N   0  0  0  0  0  0  0  0  0  0  0  0
   10.4113   -0.6178   62.2378 N   0  0  0  0  0  0  0  0  0  0  0  0
    9.2653   -2.4113   58.8240 Br  0  0  0  0  0  0  0  0  0  0  0  0
   15.7660    0.0886   58.4206 C   0  0  0  0  0  0  0  0  0  0  0  0
   14.9162    0.6760   59.3897 N   0  0  0  0  0  0  0  0  0  0  0  0
   17.0984    0.1330   58.8615 N   0  0  0  0  0  0  0  0  0  0  0  0
   15.3865   -0.3868   57.3552 O   0  0  0  0  0  0  0  0  0  0  0  0
   15.3811    1.0314   60.2318 H   0  0  0  0  0  0  0  0  0  0  0  0
   17.2609    0.5581   59.7708 H   0  0  0  0  0  0  0  0  0  0  0  0
   19.0342   -1.3370   58.7855 C   0  0  0  0  0  0  0  0  0  0  0  0
   20.1719   -1.8093   58.1312 C   0  0  0  0  0  0  0  0  0  0  0  0
   19.7459   -0.2953   56.2973 C   0  0  0  0  0  0  0  0  0  0  0  0
   18.2522   -0.3439   58.1956 C   0  0  0  0  0  0  0  0  0  0  0  0
   20.5278   -1.2884   56.8871 C   0  0  0  0  0  0  0  0  0  0  0  0
   18.6080    0.1770   56.9516 C   0  0  0  0  0  0  0  0  0  0  0  0
   21.6210   -1.7416   56.2595 F   0  0  0  0  0  0  0  0  0  0  0  0
   17.8630    1.1306   56.3745 F   0  0  0  0  0  0  0  0  0  0  0  0
    8.8583    2.3613   60.0371 C   0  0  0  0  0  0  0  0  0  0  0  0
    9.4099    1.3352   59.2154 O   0  0  0  0  0  0  0  0  0  0  0  0
  1  2  2  0  0  0
  1  5  1  0  0  0
 20 21  2  0  0  0
 20 23  1  0  0  0
  2  6  1  0  0  0
 21 24  1  0  0  0
  3  4  1  0  0  0
  3  5  2  0  0  0
 22 24  2  0  0  0
 22 25  1  0  0  0
  7  8  1  0  0  0
  7 11  2  0  0  0
  4  6  2  0  0  0
  4  9  1  0  0  0
  5 15  1  0  0  0
 23 25  2  0  0  0
 23 16  1  0  0  0
  6 29  1  0  0  0
 24 26  1  0  0  0
 25 27  1  0  0  0
  8  9  2  0  0  0
  8 13  1  0  0  0
  9 12  1  0  0  0
 14 15  1  0  0  0
 14 16  1  0  0  0
 14 17  2  0  0  0
 10 12  1  0  0  0
 28 29  1  0  0  0
 11 12  1  0  0  0
 15 18  1  0  0  0
 16 19  1  0  0  0
M  END
> <minimizedAffinity>
-9.56330

> <CNNscore>
0.7118083835

> <CNNaffinity>
6.9164352417

> <CNN_VS>
4.9231767654

> <CNNaffinity_variance>
0.0257578287

$$$$



 29 31  0  0  0  0  0  0  0  0999 V2000
   12.7068    0.1501   56.7715 C   0  0  0  0  0  0  0  0  0  0  0  0
   11.3266   -0.0496   56.7905 C   0  0  0  0  0  0  0  0  0  0  0  0
   12.6535    0.7417   59.1133 C   0  0  0  0  0  0  0  0  0  0  0  0
   11.2731    0.5420   59.1323 C   0  0  0  0  0  0  0  0  0  0  0  0
   13.3704    0.5457   57.9329 C   0  0  0  0  0  0  0  0  0  0  0  0
   10.6096    0.1463   57.9709 C   0  0  0  0  0  0  0  0  0  0  0  0
    9.4021    0.6524   62.2383 C   0  0  0  0  0  0  0  0  0  0  0  0
    9.9410   -0.1440   61.2102 C   0  0  0  0  0  0  0  0  0  0  0  0
   10.5486    0.7518   60.3647 C   0  0  0  0  0  0  0  0  0  0  0  0
   10.7924    3.2568   60.4017 C   0  0  0  0  0  0  0  0  0  0  0  0
    9.6461    1.9540   62.0640 N   0  0  0  0  0  0  0  0  0  0  0  0
   10.3450    1.9823   60.9165 N   0  0  0  0  0  0  0  0  0  0  0  0
    9.8120   -2.0011   61.0968 Br  0  0  0  0  0  0  0  0  0  0  0  0
   15.7735   -0.1789   57.5880 C   0  0  0  0  0  0  0  0  0  0  0  0
   14.7509    0.7458   57.9128 N   0  0  0  0  0  0  0  0  0  0  0  0
   17.0301    0.4381   57.6967 N   0  0  0  0  0  0  0  0  0  0  0  0
   15.5818   -1.3457   57.2607 O   0  0  0  0  0  0  0  0  0  0  0  0
   15.0675    1.6875   58.1670 H   0  0  0  0  0  0  0  0  0  0  0  0
   17.0325    1.4144   57.9807 H   0  0  0  0  0  0  0  0  0  0  0  0
   19.0027    0.1888   56.2965 C   0  0  0  0  0  0  0  0  0  0  0  0
   20.2584   -0.3710   56.0608 C   0  0  0  0  0  0  0  0  0  0  0  0
   20.1153   -1.5722   58.1522 C   0  0  0  0  0  0  0  0  0  0  0  0
   18.3034   -0.1317   57.4600 C   0  0  0  0  0  0  0  0  0  0  0  0
   20.8146   -1.2516   56.9886 C   0  0  0  0  0  0  0  0  0  0  0  0
   18.8596   -1.0122   58.3879 C   0  0  0  0  0  0  0  0  0  0  0  0
   22.0201   -1.7897   56.7616 F   0  0  0  0  0  0  0  0  0  0  0  0
   18.1972   -1.3263   59.5104 F   0  0  0  0  0  0  0  0  0  0  0  0
    8.7960   -1.2896   57.4186 C   0  0  0  0  0  0  0  0  0  0  0  0
    9.2610   -0.0558   57.9607 O   0  0  0  0  0  0  0  0  0  0  0  0
  1  2  2  0  0  0
  1  5  1  0  0  0
 20 21  2  0  0  0
 20 23  1  0  0  0
  2  6  1  0  0  0
 21 24  1  0  0  0
  3  4  1  0  0  0
  3  5  2  0  0  0
 22 24  2  0  0  0
 22 25  1  0  0  0
  7  8  1  0  0  0
  7 11  2  0  0  0
  4  6  2  0  0  0
  4  9  1  0  0  0
  5 15  1  0  0  0
 23 25  2  0  0  0
 23 16  1  0  0  0
  6 29  1  0  0  0
 24 26  1  0  0  0
 25 27  1  0  0  0
  8  9  2  0  0  0
  8 13  1  0  0  0
  9 12  1  0  0  0
 14 15  1  0  0  0
 14 16  1  0  0  0
 14 17  2  0  0  0
 10 12  1  0  0  0
 28 29  1  0  0  0
 11 12  1  0  0  0
 15 18  1  0  0  0
 16 19  1  0  0  0
M  END
> <minimizedAffinity>
-9.75571

> <CNNscore>
0.6122238040

> <CNNaffinity>
6.7385025024

> <CNN_VS>
4.1254715919

> <CNNaffinity_variance>
0.0320268348

$$$$



 29 31  0  0  0  0  0  0  0  0999 V2000
   12.7035    0.3299   56.8148 C   0  0  0  0  0  0  0  0  0  0  0  0
   11.3212    0.1509   56.8636 C   0  0  0  0  0  0  0  0  0  0  0  0
   12.7276    0.7920   59.1861 C   0  0  0  0  0  0  0  0  0  0  0  0
   11.3451    0.6131   59.2349 C   0  0  0  0  0  0  0  0  0  0  0  0
   13.4068    0.6504   57.9760 C   0  0  0  0  0  0  0  0  0  0  0  0
   10.6418    0.2925   58.0737 C   0  0  0  0  0  0  0  0  0  0  0  0
    9.6872    1.4089   62.3619 C   0  0  0  0  0  0  0  0  0  0  0  0
   10.3606    1.8923   61.2241 C   0  0  0  0  0  0  0  0  0  0  0  0
   10.6599    0.7657   60.4978 C   0  0  0  0  0  0  0  0  0  0  0  0
   10.2288   -1.6857   60.8725 C   0  0  0  0  0  0  0  0  0  0  0  0
    9.5654    0.0788   62.3627 N   0  0  0  0  0  0  0  0  0  0  0  0
   10.1663   -0.2831   61.2165 N   0  0  0  0  0  0  0  0  0  0  0  0
   10.7258    3.6848   60.8606 Br  0  0  0  0  0  0  0  0  0  0  0  0
   15.7941   -0.1229   57.6270 C   0  0  0  0  0  0  0  0  0  0  0  0
   14.7894    0.8297   57.9261 N   0  0  0  0  0  0  0  0  0  0  0  0
   17.0605    0.4804   57.6891 N   0  0  0  0  0  0  0  0  0  0  0  0
   15.5815   -1.3001   57.3546 O   0  0  0  0  0  0  0  0  0  0  0  0
   15.1227    1.7771   58.1334 H   0  0  0  0  0  0  0  0  0  0  0  0
   17.0806    1.4682   57.9296 H   0  0  0  0  0  0  0  0  0  0  0  0
   19.0253    0.1730   56.2895 C   0  0  0  0  0  0  0  0  0  0  0  0
   20.2694   -0.4144   56.0598 C   0  0  0  0  0  0  0  0  0  0  0  0
   20.1070   -1.5827   58.1683 C   0  0  0  0  0  0  0  0  0  0  0  0
   18.3221   -0.1173   57.4586 C   0  0  0  0  0  0  0  0  0  0  0  0
   20.8103   -1.2923   56.9992 C   0  0  0  0  0  0  0  0  0  0  0  0
   18.8629   -0.9952   58.3980 C   0  0  0  0  0  0  0  0  0  0  0  0
   22.0047   -1.8569   56.7779 F   0  0  0  0  0  0  0  0  0  0  0  0
   18.1966   -1.2803   59.5259 F   0  0  0  0  0  0  0  0  0  0  0  0
    8.7907   -1.0947   57.5215 C   0  0  0  0  0  0  0  0  0  0  0  0
    9.2902    0.1123   58.0924 O   0  0  0  0  0  0  0  0  0  0  0  0
  1  2  2  0  0  0
  1  5  1  0  0  0
 20 21  2  0  0  0
 20 23  1  0  0  0
  2  6  1  0  0  0
 21 24  1  0  0  0
  3  4  1  0  0  0
  3  5  2  0  0  0
 22 24  2  0  0  0
 22 25  1  0  0  0
  7  8  1  0  0  0
  7 11  2  0  0  0
  4  6  2  0  0  0
  4  9  1  0  0  0
  5 15  1  0  0  0
 23 25  2  0  0  0
 23 16  1  0  0  0
  6 29  1  0  0  0
 24 26  1  0  0  0
 25 27  1  0  0  0
  8  9  2  0  0  0
  8 13  1  0  0  0
  9 12  1  0  0  0
 14 15  1  0  0  0
 14 16  1  0  0  0
 14 17  2  0  0  0
 10 12  1  0  0  0
 28 29  1  0  0  0
 11 12  1  0  0  0
 15 18  1  0  0  0
 16 19  1  0  0  0
M  END
> <minimizedAffinity>
-9.97621

> <CNNscore>
0.6111584306

> <CNNaffinity>
6.8153085709

> <CNN_VS>
4.1652331352

> <CNNaffinity_variance>
0.0446403883

$$$$



 29 31  0  0  0  0  0  0  0  0999 V2000
   11.5875    0.4716   57.8752 C   0  0  0  0  0  0  0  0  0  0  0  0
   10.2103    0.2511   57.8795 C   0  0  0  0  0  0  0  0  0  0  0  0
   11.7015   -0.1935   60.1950 C   0  0  0  0  0  0  0  0  0  0  0  0
   10.3241   -0.4140   60.1994 C   0  0  0  0  0  0  0  0  0  0  0  0
   12.3332    0.2492   59.0329 C   0  0  0  0  0  0  0  0  0  0  0  0
    9.5785   -0.1917   59.0416 C   0  0  0  0  0  0  0  0  0  0  0  0
    8.6732   -1.9288   63.0524 C   0  0  0  0  0  0  0  0  0  0  0  0
    9.1324   -2.0862   61.7311 C   0  0  0  0  0  0  0  0  0  0  0  0
    9.6884   -0.8711   61.4137 C   0  0  0  0  0  0  0  0  0  0  0  0
    9.9575    1.2817   62.6899 C   0  0  0  0  0  0  0  0  0  0  0  0
    8.9167   -0.7098   63.5411 N   0  0  0  0  0  0  0  0  0  0  0  0
    9.5349   -0.0903   62.5214 N   0  0  0  0  0  0  0  0  0  0  0  0
    8.9785   -3.6377   60.7076 Br  0  0  0  0  0  0  0  0  0  0  0  0
   14.6779    0.0008   58.1058 C   0  0  0  0  0  0  0  0  0  0  0  0
   13.7106    0.4705   59.0277 N   0  0  0  0  0  0  0  0  0  0  0  0
   15.9533    0.4582   58.4743 N   0  0  0  0  0  0  0  0  0  0  0  0
   14.4304   -0.7019   57.1310 O   0  0  0  0  0  0  0  0  0  0  0  0
   14.0707    1.0503   59.7931 H   0  0  0  0  0  0  0  0  0  0  0  0
   16.0040    1.0336   59.3111 H   0  0  0  0  0  0  0  0  0  0  0  0
   17.5227    0.9423   56.6808 C   0  0  0  0  0  0  0  0  0  0  0  0
   18.7380    0.7069   56.0378 C   0  0  0  0  0  0  0  0  0  0  0  0
   19.2806   -0.9794   57.6807 C   0  0  0  0  0  0  0  0  0  0  0  0
   17.1865    0.2169   57.8238 C   0  0  0  0  0  0  0  0  0  0  0  0
   19.6169   -0.2540   56.5378 C   0  0  0  0  0  0  0  0  0  0  0  0
   18.0653   -0.7439   58.3238 C   0  0  0  0  0  0  0  0  0  0  0  0
   20.7835   -0.4804   55.9195 F   0  0  0  0  0  0  0  0  0  0  0  0
   17.7533   -1.4459   59.4226 F   0  0  0  0  0  0  0  0  0  0  0  0
    7.7321   -1.2978   58.0303 C   0  0  0  0  0  0  0  0  0  0  0  0
    8.2308   -0.3986   59.0176 O   0  0  0  0  0  0  0  0  0  0  0  0
  1  2  2  0  0  0
  1  5  1  0  0  0
 20 21  2  0  0  0
 20 23  1  0  0  0
  2  6  1  0  0  0
 21 24  1  0  0  0
  3  4  1  0  0  0
  3  5  2  0  0  0
 22 24  2  0  0  0
 22 25  1  0  0  0
  7  8  1  0  0  0
  7 11  2  0  0  0
  4  6  2  0  0  0
  4  9  1  0  0  0
  5 15  1  0  0  0
 23 25  2  0  0  0
 23 16  1  0  0  0
  6 29  1  0  0  0
 24 26  1  0  0  0
 25 27  1  0  0  0
  8  9  2  0  0  0
  8 13  1  0  0  0
  9 12  1  0  0  0
 14 15  1  0  0  0
 14 16  1  0  0  0
 14 17  2  0  0  0
 10 12  1  0  0  0
 28 29  1  0  0  0
 11 12  1  0  0  0
 15 18  1  0  0  0
 16 19  1  0  0  0
M  END
> <minimizedAffinity>
-8.98416

> <CNNscore>
0.5552114844

> <CNNaffinity>
6.5286684036

> <CNN_VS>
3.6247916222

> <CNNaffinity_variance>
0.0557356998

$$$$



 29 31  0  0  0  0  0  0  0  0999 V2000
   10.3108   -1.4633   61.4962 C   0  0  0  0  0  0  0  0  0  0  0  0
    9.0397   -1.9072   61.8602 C   0  0  0  0  0  0  0  0  0  0  0  0
   10.5298   -0.3435   63.6258 C   0  0  0  0  0  0  0  0  0  0  0  0
    9.2585   -0.7874   63.9898 C   0  0  0  0  0  0  0  0  0  0  0  0
   11.0560   -0.6814   62.3789 C   0  0  0  0  0  0  0  0  0  0  0  0
    8.5135   -1.5693   63.1071 C   0  0  0  0  0  0  0  0  0  0  0  0
    7.7320    0.4333   67.0459 C   0  0  0  0  0  0  0  0  0  0  0  0
    7.8798    0.5876   65.6545 C   0  0  0  0  0  0  0  0  0  0  0  0
    8.7308   -0.4252   65.2852 C   0  0  0  0  0  0  0  0  0  0  0  0
    9.8902   -2.2513   66.5726 C   0  0  0  0  0  0  0  0  0  0  0  0
    8.4328   -0.5966   67.5278 N   0  0  0  0  0  0  0  0  0  0  0  0
    9.0291   -1.0986   66.4331 N   0  0  0  0  0  0  0  0  0  0  0  0
    7.0641    1.9056   64.6173 Br  0  0  0  0  0  0  0  0  0  0  0  0
   12.9796   -0.3572   60.7623 C   0  0  0  0  0  0  0  0  0  0  0  0
   12.3271   -0.2374   62.0137 N   0  0  0  0  0  0  0  0  0  0  0  0
   14.2543    0.2279   60.8282 N   0  0  0  0  0  0  0  0  0  0  0  0
   12.4958   -0.8944   59.7710 O   0  0  0  0  0  0  0  0  0  0  0  0
   12.8599    0.2391   62.7490 H   0  0  0  0  0  0  0  0  0  0  0  0
   14.5203    0.6352   61.7211 H   0  0  0  0  0  0  0  0  0  0  0  0
   16.2163   -0.6515   59.6920 C   0  0  0  0  0  0  0  0  0  0  0  0
   17.1726   -0.5615   58.6805 C   0  0  0  0  0  0  0  0  0  0  0  0
   16.1433    1.4757   57.8885 C   0  0  0  0  0  0  0  0  0  0  0  0
   15.2234    0.3220   59.8015 C   0  0  0  0  0  0  0  0  0  0  0  0
   17.1362    0.5021   57.7789 C   0  0  0  0  0  0  0  0  0  0  0  0
   15.1869    1.3856   58.8999 C   0  0  0  0  0  0  0  0  0  0  0  0
   18.0553    0.5887   56.8082 F   0  0  0  0  0  0  0  0  0  0  0  0
   14.2362    2.3262   58.9948 F   0  0  0  0  0  0  0  0  0  0  0  0
    6.9374   -3.3495   63.0542 C   0  0  0  0  0  0  0  0  0  0  0  0
    7.2681   -2.0166   63.4367 O   0  0  0  0  0  0  0  0  0  0  0  0
  1  2  2  0  0  0
  1  5  1  0  0  0
 20 21  2  0  0  0
 20 23  1  0  0  0
  2  6  1  0  0  0
 21 24  1  0  0  0
  3  4  1  0  0  0
  3  5  2  0  0  0
 22 24  2  0  0  0
 22 25  1  0  0  0
  7  8  1  0  0  0
  7 11  2  0  0  0
  4  6  2  0  0  0
  4  9  1  0  0  0
  5 15  1  0  0  0
 23 25  2  0  0  0
 23 16  1  0  0  0
  6 29  1  0  0  0
 24 26  1  0  0  0
 25 27  1  0  0  0
  8  9  2  0  0  0
  8 13  1  0  0  0
  9 12  1  0  0  0
 14 15  1  0  0  0
 14 16  1  0  0  0
 14 17  2  0  0  0
 10 12  1  0  0  0
 28 29  1  0  0  0
 11 12  1  0  0  0
 15 18  1  0  0  0
 16 19  1  0  0  0
M  END
> <minimizedAffinity>
-8.30730

> <CNNscore>
0.5419567227

> <CNNaffinity>
6.7430696487

> <CNN_VS>
3.6544518471

> <CNNaffinity_variance>
0.0840761289

$$$$



 29 31  0  0  0  0  0  0  0  0999 V2000
   11.7388    0.7896   63.6063 C   0  0  0  0  0  0  0  0  0  0  0  0
   10.4287    0.6804   64.0723 C   0  0  0  0  0  0  0  0  0  0  0  0
   11.2320   -0.7549   61.8190 C   0  0  0  0  0  0  0  0  0  0  0  0
    9.9218   -0.8642   62.2850 C   0  0  0  0  0  0  0  0  0  0  0  0
   12.1405    0.0721   62.4796 C   0  0  0  0  0  0  0  0  0  0  0  0
    9.5201   -0.1466   63.4117 C   0  0  0  0  0  0  0  0  0  0  0  0
    7.5902   -3.2638   60.8830 C   0  0  0  0  0  0  0  0  0  0  0  0
    8.3625   -2.8758   61.9942 C   0  0  0  0  0  0  0  0  0  0  0  0
    8.9965   -1.7273   61.5875 C   0  0  0  0  0  0  0  0  0  0  0  0
    8.9666   -0.4161   59.4391 C   0  0  0  0  0  0  0  0  0  0  0  0
    7.7200   -2.4293   59.8482 N   0  0  0  0  0  0  0  0  0  0  0  0
    8.5812   -1.5055   60.3075 N   0  0  0  0  0  0  0  0  0  0  0  0
    8.4492   -3.7802   63.6230 Br  0  0  0  0  0  0  0  0  0  0  0  0
   13.9296    0.0735   60.6858 C   0  0  0  0  0  0  0  0  0  0  0  0
   13.4512    0.1816   62.0146 N   0  0  0  0  0  0  0  0  0  0  0  0
   15.3226    0.2487   60.6621 N   0  0  0  0  0  0  0  0  0  0  0  0
   13.2247   -0.1417   59.7050 O   0  0  0  0  0  0  0  0  0  0  0  0
   14.1629    0.3648   62.7298 H   0  0  0  0  0  0  0  0  0  0  0  0
   15.7732    0.4191   61.5575 H   0  0  0  0  0  0  0  0  0  0  0  0
   17.0698   -0.8489   59.3751 C   0  0  0  0  0  0  0  0  0  0  0  0
   17.9211   -0.8832   58.2706 C   0  0  0  0  0  0  0  0  0  0  0  0
   17.0034    1.2139   57.4980 C   0  0  0  0  0  0  0  0  0  0  0  0
   16.1853    0.2168   59.5409 C   0  0  0  0  0  0  0  0  0  0  0  0
   17.8879    0.1482   57.3321 C   0  0  0  0  0  0  0  0  0  0  0  0
   16.1520    1.2482   58.6025 C   0  0  0  0  0  0  0  0  0  0  0  0
   18.7061    0.1153   56.2720 F   0  0  0  0  0  0  0  0  0  0  0  0
   15.3048    2.2766   58.7510 F   0  0  0  0  0  0  0  0  0  0  0  0
    7.9575    0.4671   65.0961 C   0  0  0  0  0  0  0  0  0  0  0  0
    8.2458   -0.2348   63.8893 O   0  0  0  0  0  0  0  0  0  0  0  0
  1  2  2  0  0  0
  1  5  1  0  0  0
 20 21  2  0  0  0
 20 23  1  0  0  0
  2  6  1  0  0  0
 21 24  1  0  0  0
  3  4  1  0  0  0
  3  5  2  0  0  0
 22 24  2  0  0  0
 22 25  1  0  0  0
  7  8  1  0  0  0
  7 11  2  0  0  0
  4  6  2  0  0  0
  4  9  1  0  0  0
  5 15  1  0  0  0
 23 25  2  0  0  0
 23 16  1  0  0  0
  6 29  1  0  0  0
 24 26  1  0  0  0
 25 27  1  0  0  0
  8  9  2  0  0  0
  8 13  1  0  0  0
  9 12  1  0  0  0
 14 15  1  0  0  0
 14 16  1  0  0  0
 14 17  2  0  0  0
 10 12  1  0  0  0
 28 29  1  0  0  0
 11 12  1  0  0  0
 15 18  1  0  0  0
 16 19  1  0  0  0
M  END
> <minimizedAffinity>
-9.55407

> <CNNscore>
0.5140393972

> <CNNaffinity>
6.4762144089

> <CNN_VS>
3.3290293217

> <CNNaffinity_variance>
0.1537317634

$$$$



 29 31  0  0  0  0  0  0  0  0999 V2000
    8.2825   -2.8296   61.5083 C   0  0  0  0  0  0  0  0  0  0  0  0
    7.2918   -3.1613   62.4322 C   0  0  0  0  0  0  0  0  0  0  0  0
    9.1772   -1.2008   63.0521 C   0  0  0  0  0  0  0  0  0  0  0  0
    8.1863   -1.5325   63.9762 C   0  0  0  0  0  0  0  0  0  0  0  0
    9.2254   -1.8494   61.8181 C   0  0  0  0  0  0  0  0  0  0  0  0
    7.2436   -2.5128   63.6663 C   0  0  0  0  0  0  0  0  0  0  0  0
    7.8619    0.4739   66.9811 C   0  0  0  0  0  0  0  0  0  0  0  0
    7.5329    0.3196   65.6210 C   0  0  0  0  0  0  0  0  0  0  0  0
    8.1527   -0.8480   65.2482 C   0  0  0  0  0  0  0  0  0  0  0  0
    9.5860   -2.5048   66.4878 C   0  0  0  0  0  0  0  0  0  0  0  0
    8.6308   -0.5166   67.4412 N   0  0  0  0  0  0  0  0  0  0  0  0
    8.7901   -1.3045   66.3642 N   0  0  0  0  0  0  0  0  0  0  0  0
    6.4813    1.4907   64.6205 Br  0  0  0  0  0  0  0  0  0  0  0  0
   11.3818   -0.7379   61.0879 C   0  0  0  0  0  0  0  0  0  0  0  0
   10.2156   -1.5179   60.8931 N   0  0  0  0  0  0  0  0  0  0  0  0
   12.1070   -0.6520   59.8886 N   0  0  0  0  0  0  0  0  0  0  0  0
   11.7042   -0.2172   62.1510 O   0  0  0  0  0  0  0  0  0  0  0  0
   10.0815   -1.8882   59.9463 H   0  0  0  0  0  0  0  0  0  0  0  0
   11.7138   -1.1362   59.0856 H   0  0  0  0  0  0  0  0  0  0  0  0
   13.3456    1.1480   58.8211 C   0  0  0  0  0  0  0  0  0  0  0  0
   14.5445    1.8221   58.5886 C   0  0  0  0  0  0  0  0  0  0  0  0
   15.7014    0.2589   60.0221 C   0  0  0  0  0  0  0  0  0  0  0  0
   13.3247    0.0295   59.6542 C   0  0  0  0  0  0  0  0  0  0  0  0
   15.7224    1.3775   59.1891 C   0  0  0  0  0  0  0  0  0  0  0  0
   14.5025   -0.4151   60.2547 C   0  0  0  0  0  0  0  0  0  0  0  0
   16.8736    2.0246   58.9649 F   0  0  0  0  0  0  0  0  0  0  0  0
   14.4938   -1.4881   61.0585 F   0  0  0  0  0  0  0  0  0  0  0  0
    4.9629   -2.3244   64.3133 C   0  0  0  0  0  0  0  0  0  0  0  0
    6.2639   -2.8566   64.5504 O   0  0  0  0  0  0  0  0  0  0  0  0
  1  2  2  0  0  0
  1  5  1  0  0  0
 20 21  2  0  0  0
 20 23  1  0  0  0
  2  6  1  0  0  0
 21 24  1  0  0  0
  3  4  1  0  0  0
  3  5  2  0  0  0
 22 24  2  0  0  0
 22 25  1  0  0  0
  7  8  1  0  0  0
  7 11  2  0  0  0
  4  6  2  0  0  0
  4  9  1  0  0  0
  5 15  1  0  0  0
 23 25  2  0  0  0
 23 16  1  0  0  0
  6 29  1  0  0  0
 24 26  1  0  0  0
 25 27  1  0  0  0
  8  9  2  0  0  0
  8 13  1  0  0  0
  9 12  1  0  0  0
 14 15  1  0  0  0
 14 16  1  0  0  0
 14 17  2  0  0  0
 10 12  1  0  0  0
 28 29  1  0  0  0
 11 12  1  0  0  0
 15 18  1  0  0  0
 16 19  1  0  0  0
M  END
> <minimizedAffinity>
-8.71361

> <CNNscore>
0.5131383538

> <CNNaffinity>
6.7329683304

> <CNN_VS>
3.4549443722

> <CNNaffinity_variance>
0.2018522918

$$$$



 29 31  0  0  0  0  0  0  0  0999 V2000
   18.7727   -0.1343   63.7965 C   0  0  0  0  0  0  0  0  0  0  0  0
   20.0489   -0.3644   64.3101 C   0  0  0  0  0  0  0  0  0  0  0  0
   19.7016    1.3947   62.1728 C   0  0  0  0  0  0  0  0  0  0  0  0
   20.9780    1.1646   62.6864 C   0  0  0  0  0  0  0  0  0  0  0  0
   18.5990    0.7452   62.7278 C   0  0  0  0  0  0  0  0  0  0  0  0
   21.1516    0.2851   63.7551 C   0  0  0  0  0  0  0  0  0  0  0  0
   23.7596    3.1728   61.5075 C   0  0  0  0  0  0  0  0  0  0  0  0
   22.7233    3.0247   62.4487 C   0  0  0  0  0  0  0  0  0  0  0  0
   22.1069    1.8483   62.0985 C   0  0  0  0  0  0  0  0  0  0  0  0
   22.5211    0.1690   60.2698 C   0  0  0  0  0  0  0  0  0  0  0  0
   23.8025    2.1704   60.6258 N   0  0  0  0  0  0  0  0  0  0  0  0
   22.7854    1.3812   61.0115 N   0  0  0  0  0  0  0  0  0  0  0  0
   22.3397    4.2124   63.8346 Br  0  0  0  0  0  0  0  0  0  0  0  0
   16.7482    0.4818   61.0179 C   0  0  0  0  0  0  0  0  0  0  0  0
   17.3220    0.9751   62.2152 N   0  0  0  0  0  0  0  0  0  0  0  0
   15.4354    0.9613   60.8823 N   0  0  0  0  0  0  0  0  0  0  0  0
   17.3200   -0.2557   60.2214 O   0  0  0  0  0  0  0  0  0  0  0  0
   16.7187    1.5820   62.7802 H   0  0  0  0  0  0  0  0  0  0  0  0
   15.0955    1.5675   61.6246 H   0  0  0  0  0  0  0  0  0  0  0  0
   14.8850    0.9647   58.5136 C   0  0  0  0  0  0  0  0  0  0  0  0
   13.9839    0.7141   57.4787 C   0  0  0  0  0  0  0  0  0  0  0  0
   12.3511   -0.0524   59.0860 C   0  0  0  0  0  0  0  0  0  0  0  0
   14.5191    0.7066   59.8346 C   0  0  0  0  0  0  0  0  0  0  0  0
   12.7170    0.2056   57.7649 C   0  0  0  0  0  0  0  0  0  0  0  0
   13.2522    0.1981   60.1209 C   0  0  0  0  0  0  0  0  0  0  0  0
   11.8516   -0.0341   56.7709 F   0  0  0  0  0  0  0  0  0  0  0  0
   12.8904   -0.0551   61.3868 F   0  0  0  0  0  0  0  0  0  0  0  0
   23.1807   -0.9487   63.6274 C   0  0  0  0  0  0  0  0  0  0  0  0
   22.3877    0.0418   64.2772 O   0  0  0  0  0  0  0  0  0  0  0  0
  1  2  2  0  0  0
  1  5  1  0  0  0
 20 21  2  0  0  0
 20 23  1  0  0  0
  2  6  1  0  0  0
 21 24  1  0  0  0
  3  4  1  0  0  0
  3  5  2  0  0  0
 22 24  2  0  0  0
 22 25  1  0  0  0
  7  8  1  0  0  0
  7 11  2  0  0  0
  4  6  2  0  0  0
  4  9  1  0  0  0
  5 15  1  0  0  0
 23 25  2  0  0  0
 23 16  1  0  0  0
  6 29  1  0  0  0
 24 26  1  0  0  0
 25 27  1  0  0  0
  8  9  2  0  0  0
  8 13  1  0  0  0
  9 12  1  0  0  0
 14 15  1  0  0  0
 14 16  1  0  0  0
 14 17  2  0  0  0
 10 12  1  0  0  0
 28 29  1  0  0  0
 11 12  1  0  0  0
 15 18  1  0  0  0
 16 19  1  0  0  0
M  END
> <minimizedAffinity>
28.25130

> <CNNscore>
0.4874848127

> <CNNaffinity>
6.3634748459

> <CNN_VS>
3.1020972729

> <CNNaffinity_variance>
0.4648351073

$$$$



 38 44  0  0  0  0  0  0  0  0999 V2000
   10.0670    0.2990   64.8561 C   0  0  0  0  0  0  0  0  0  0  0  0
   11.1093    1.2924   64.3547 C   0  0  0  0  0  0  0  0  0  0  0  0
   10.2359   -1.0769   64.2157 C   0  0  0  0  0  0  0  0  0  0  0  0
   11.1323    1.3742   62.8300 C   0  0  0  0  0  0  0  0  0  0  0  0
   10.2678   -1.0281   62.6786 C   0  0  0  0  0  0  0  0  0  0  0  0
   11.2960    0.0026   62.1534 C   0  0  0  0  0  0  0  0  0  0  0  0
    8.8692   -0.7538   62.1107 C   0  0  0  0  0  0  0  0  0  0  0  0
    6.8341   -3.7206   62.2386 C   0  0  0  0  0  0  0  0  0  0  0  0
    6.4190   -3.0492   63.4098 C   0  0  0  0  0  0  0  0  0  0  0  0
    7.7823   -2.9654   61.6168 C   0  0  0  0  0  0  0  0  0  0  0  0
    7.1113   -1.8801   63.5098 C   0  0  0  0  0  0  0  0  0  0  0  0
    4.5769   -4.6335   61.8701 C   0  0  0  0  0  0  0  0  0  0  0  0
    4.1171   -3.8898   63.1678 C   0  0  0  0  0  0  0  0  0  0  0  0
    5.9360   -5.3171   63.6871 C   0  0  0  0  0  0  0  0  0  0  0  0
    6.0574   -4.9949   62.1594 C   0  0  0  0  0  0  0  0  0  0  0  0
    5.3818   -3.9021   64.0657 C   0  0  0  0  0  0  0  0  0  0  0  0
    7.9459   -1.8368   62.4043 N   0  0  0  0  0  0  0  0  0  0  0  0
    8.4748   -3.1491   60.5026 O   0  0  0  0  0  0  0  0  0  0  0  0
    7.0897   -0.9088   64.4103 O   0  0  0  0  0  0  0  0  0  0  0  0
    8.2457   -3.9955   60.0567 H   0  0  0  0  0  0  0  0  0  0  0  0
    6.4465   -1.0851   65.1333 H   0  0  0  0  0  0  0  0  0  0  0  0
   12.7310   -0.5172   62.3105 C   0  0  0  0  0  0  0  0  0  0  0  0
   13.9327    0.3092   58.7779 C   0  0  0  0  0  0  0  0  0  0  0  0
   15.8485    0.5180   60.3529 C   0  0  0  0  0  0  0  0  0  0  0  0
   13.1317   -0.4158   59.8509 C   0  0  0  0  0  0  0  0  0  0  0  0
   15.0410   -0.2032   61.4247 C   0  0  0  0  0  0  0  0  0  0  0  0
   15.3739    0.1540   59.0141 N   0  0  0  0  0  0  0  0  0  0  0  0
   13.5734    0.0641   61.2102 N   0  0  0  0  0  0  0  0  0  0  0  0
   13.4404    1.0866   61.2333 H   0  0  0  0  0  0  0  0  0  0  0  0
   19.5054   -1.5000   58.7219 C   0  0  0  0  0  0  0  0  0  0  0  0
   20.1489   -1.2204   57.5213 C   0  0  0  0  0  0  0  0  0  0  0  0
   18.2037   -1.0441   58.9541 C   0  0  0  0  0  0  0  0  0  0  0  0
   19.5119   -0.4800   56.5226 C   0  0  0  0  0  0  0  0  0  0  0  0
   17.5356   -0.2932   57.9618 C   0  0  0  0  0  0  0  0  0  0  0  0
   18.2059   -0.0273   56.7659 C   0  0  0  0  0  0  0  0  0  0  0  0
   16.2300    0.2941   57.9156 C   0  0  0  0  0  0  0  0  0  0  0  0
   15.8872    0.9550   56.8148 N   0  0  0  0  0  0  0  0  0  0  0  0
   17.1604    0.8949   55.7575 S   0  0  0  0  0  0  0  0  0  0  0  0
 30 31  1  0  0  0
 30 32  2  0  0  0
 31 33  2  0  0  0
 32 34  1  0  0  0
 33 35  1  0  0  0
 34 35  2  0  0  0
 34 36  1  0  0  0
  8  9  1  0  0  0
  8 10  2  0  0  0
  8 15  1  0  0  0
  9 11  2  0  0  0
  9 16  1  0  0  0
 35 38  1  0  0  0
 36 37  2  0  0  0
 36 27  1  0  0  0
 10 17  1  0  0  0
 10 18  1  0  0  0
 11 17  1  0  0  0
 11 19  1  0  0  0
  1  2  1  0  0  0
  1  3  1  0  0  0
  2  4  1  0  0  0
 12 13  1  0  0  0
 12 15  1  0  0  0
 13 16  1  0  0  0
  3  5  1  0  0  0
  4  6  1  0  0  0
 14 15  1  0  0  0
 14 16  1  0  0  0
 23 25  1  0  0  0
 23 27  1  0  0  0
 24 26  1  0  0  0
 24 27  1  0  0  0
 25 28  1  0  0  0
 26 28  1  0  0  0
  5  6  1  0  0  0
  5  7  1  0  0  0
  6 22  1  0  0  0
  7 17  1  0  0  0
 22 28  1  0  0  0
 37 38  1  0  0  0
 28 29  1  0  0  0
 18 20  1  0  0  0
 19 21  1  0  0  0
M  CHG 1  28   1
M  END
> <minimizedAffinity>
-9.53651

> <CNNscore>
0.5348017812

> <CNNaffinity>
7.2893652916

> <CNN_VS>
3.8983654976

> <CNNaffinity_variance>
0.3973718286

$$$$



 38 44  0  0  0  0  0  0  0  0999 V2000
   11.6593    2.0639   57.7596 C   0  0  0  0  0  0  0  0  0  0  0  0
   12.4498    0.7810   57.5276 C   0  0  0  0  0  0  0  0  0  0  0  0
   11.7154    2.5125   59.2182 C   0  0  0  0  0  0  0  0  0  0  0  0
   12.0231   -0.3325   58.4814 C   0  0  0  0  0  0  0  0  0  0  0  0
   11.2955    1.4106   60.2059 C   0  0  0  0  0  0  0  0  0  0  0  0
   12.0636    0.0896   59.9600 C   0  0  0  0  0  0  0  0  0  0  0  0
    9.7785    1.1856   60.1621 C   0  0  0  0  0  0  0  0  0  0  0  0
    8.7064   -2.1916   60.7986 C   0  0  0  0  0  0  0  0  0  0  0  0
    9.0658   -1.7657   62.0965 C   0  0  0  0  0  0  0  0  0  0  0  0
    8.9222   -1.1657   59.9286 C   0  0  0  0  0  0  0  0  0  0  0  0
    9.5029   -0.4774   62.0263 C   0  0  0  0  0  0  0  0  0  0  0  0
    6.8857   -3.5956   61.6806 C   0  0  0  0  0  0  0  0  0  0  0  0
    7.2839   -3.1239   63.1185 C   0  0  0  0  0  0  0  0  0  0  0  0
    9.1694   -4.0985   62.0647 C   0  0  0  0  0  0  0  0  0  0  0  0
    8.2325   -3.6044   60.9112 C   0  0  0  0  0  0  0  0  0  0  0  0
    8.8174   -2.9113   63.0235 C   0  0  0  0  0  0  0  0  0  0  0  0
    9.4110   -0.1169   60.6913 N   0  0  0  0  0  0  0  0  0  0  0  0
    8.7465   -1.0585   58.6200 O   0  0  0  0  0  0  0  0  0  0  0  0
    9.9453    0.3626   62.9503 O   0  0  0  0  0  0  0  0  0  0  0  0
    8.3934   -1.8860   58.2223 H   0  0  0  0  0  0  0  0  0  0  0  0
    9.9510   -0.0400   63.8478 H   0  0  0  0  0  0  0  0  0  0  0  0
   13.5102    0.1885   60.4615 C   0  0  0  0  0  0  0  0  0  0  0  0
   16.0215   -0.9718   57.8245 C   0  0  0  0  0  0  0  0  0  0  0  0
   16.1482    1.5056   58.0266 C   0  0  0  0  0  0  0  0  0  0  0  0
   15.2176   -1.0344   59.1162 C   0  0  0  0  0  0  0  0  0  0  0  0
   15.3392    1.4381   59.3157 C   0  0  0  0  0  0  0  0  0  0  0  0
   16.8500    0.2404   57.7885 N   0  0  0  0  0  0  0  0  0  0  0  0
   14.4265    0.2396   59.2714 N   0  0  0  0  0  0  0  0  0  0  0  0
   13.8322    0.3362   58.4341 H   0  0  0  0  0  0  0  0  0  0  0  0
   20.5618   -2.1049   58.5709 C   0  0  0  0  0  0  0  0  0  0  0  0
   21.5507   -1.9477   57.6059 C   0  0  0  0  0  0  0  0  0  0  0  0
   19.3425   -1.4294   58.4561 C   0  0  0  0  0  0  0  0  0  0  0  0
   21.3496   -1.1140   56.5033 C   0  0  0  0  0  0  0  0  0  0  0  0
   19.1119   -0.5800   57.3517 C   0  0  0  0  0  0  0  0  0  0  0  0
   20.1226   -0.4408   56.3980 C   0  0  0  0  0  0  0  0  0  0  0  0
   17.9883    0.2240   56.9740 C   0  0  0  0  0  0  0  0  0  0  0  0
   18.0805    0.9280   55.8506 N   0  0  0  0  0  0  0  0  0  0  0  0
   19.5682    0.6426   55.1816 S   0  0  0  0  0  0  0  0  0  0  0  0
 30 31  1  0  0  0
 30 32  2  0  0  0
 31 33  2  0  0  0
 32 34  1  0  0  0
 33 35  1  0  0  0
 34 35  2  0  0  0
 34 36  1  0  0  0
  8  9  1  0  0  0
  8 10  2  0  0  0
  8 15  1  0  0  0
  9 11  2  0  0  0
  9 16  1  0  0  0
 35 38  1  0  0  0
 36 37  2  0  0  0
 36 27  1  0  0  0
 10 17  1  0  0  0
 10 18  1  0  0  0
 11 17  1  0  0  0
 11 19  1  0  0  0
  1  2  1  0  0  0
  1  3  1  0  0  0
  2  4  1  0  0  0
 12 13  1  0  0  0
 12 15  1  0  0  0
 13 16  1  0  0  0
  3  5  1  0  0  0
  4  6  1  0  0  0
 14 15  1  0  0  0
 14 16  1  0  0  0
 23 25  1  0  0  0
 23 27  1  0  0  0
 24 26  1  0  0  0
 24 27  1  0  0  0
 25 28  1  0  0  0
 26 28  1  0  0  0
  5  6  1  0  0  0
  5  7  1  0  0  0
  6 22  1  0  0  0
  7 17  1  0  0  0
 22 28  1  0  0  0
 37 38  1  0  0  0
 28 29  1  0  0  0
 18 20  1  0  0  0
 19 21  1  0  0  0
M  CHG 1  28   1
M  END
> <minimizedAffinity>
-9.92918

> <CNNscore>
0.5091902018

> <CNNaffinity>
7.3910970688

> <CNN_VS>
3.7634742260

> <CNNaffinity_variance>
0.0861092433

$$$$



 38 44  0  0  0  0  0  0  0  0999 V2000
   10.7666    2.3274   58.8032 C   0  0  0  0  0  0  0  0  0  0  0  0
   11.8554    1.5773   58.0439 C   0  0  0  0  0  0  0  0  0  0  0  0
   10.9551    2.2296   60.3154 C   0  0  0  0  0  0  0  0  0  0  0  0
   11.9798    0.1280   58.5085 C   0  0  0  0  0  0  0  0  0  0  0  0
   11.0888    0.7810   60.8152 C   0  0  0  0  0  0  0  0  0  0  0  0
   12.1657   -0.0054   60.0296 C   0  0  0  0  0  0  0  0  0  0  0  0
    9.7351    0.0602   60.7721 C   0  0  0  0  0  0  0  0  0  0  0  0
    8.7688   -0.4396   64.2038 C   0  0  0  0  0  0  0  0  0  0  0  0
    8.7661   -1.7663   63.7192 C   0  0  0  0  0  0  0  0  0  0  0  0
    9.1233    0.3946   63.1868 C   0  0  0  0  0  0  0  0  0  0  0  0
    9.1191   -1.7497   62.4035 C   0  0  0  0  0  0  0  0  0  0  0  0
    9.5342   -1.1721   66.4267 C   0  0  0  0  0  0  0  0  0  0  0  0
    9.5311   -2.6419   65.8899 C   0  0  0  0  0  0  0  0  0  0  0  0
    7.3779   -1.6971   65.5958 C   0  0  0  0  0  0  0  0  0  0  0  0
    8.3787   -0.4936   65.6454 C   0  0  0  0  0  0  0  0  0  0  0  0
    8.3743   -2.6529   64.8567 C   0  0  0  0  0  0  0  0  0  0  0  0
    9.3370   -0.4186   62.0850 N   0  0  0  0  0  0  0  0  0  0  0  0
    9.2706    1.7097   63.1263 O   0  0  0  0  0  0  0  0  0  0  0  0
    9.2618   -2.7167   61.5094 O   0  0  0  0  0  0  0  0  0  0  0  0
    9.0841    2.1456   63.9883 H   0  0  0  0  0  0  0  0  0  0  0  0
    9.0725   -3.6048   61.8876 H   0  0  0  0  0  0  0  0  0  0  0  0
   13.5787    0.4218   60.4477 C   0  0  0  0  0  0  0  0  0  0  0  0
   16.2985   -1.0160   58.1802 C   0  0  0  0  0  0  0  0  0  0  0  0
   15.9891    1.3944   57.6429 C   0  0  0  0  0  0  0  0  0  0  0  0
   15.4956   -0.8319   59.4609 C   0  0  0  0  0  0  0  0  0  0  0  0
   15.1820    1.5722   58.9227 C   0  0  0  0  0  0  0  0  0  0  0  0
   16.9041    0.2549   57.7615 N   0  0  0  0  0  0  0  0  0  0  0  0
   14.4925    0.2761   59.2636 N   0  0  0  0  0  0  0  0  0  0  0  0
   13.9050    0.0186   58.4560 H   0  0  0  0  0  0  0  0  0  0  0  0
   20.5856   -2.1084   58.6283 C   0  0  0  0  0  0  0  0  0  0  0  0
   21.5761   -1.9989   57.6584 C   0  0  0  0  0  0  0  0  0  0  0  0
   19.3751   -1.4218   58.4892 C   0  0  0  0  0  0  0  0  0  0  0  0
   21.3853   -1.2031   56.5263 C   0  0  0  0  0  0  0  0  0  0  0  0
   19.1551   -0.6099   57.3547 C   0  0  0  0  0  0  0  0  0  0  0  0
   20.1671   -0.5184   56.3967 C   0  0  0  0  0  0  0  0  0  0  0  0
   18.0418    0.1944   56.9483 C   0  0  0  0  0  0  0  0  0  0  0  0
   18.1426    0.8561   55.8002 N   0  0  0  0  0  0  0  0  0  0  0  0
   19.6263    0.5275   55.1420 S   0  0  0  0  0  0  0  0  0  0  0  0
 30 31  1  0  0  0
 30 32  2  0  0  0
 31 33  2  0  0  0
 32 34  1  0  0  0
 33 35  1  0  0  0
 34 35  2  0  0  0
 34 36  1  0  0  0
  8  9  1  0  0  0
  8 10  2  0  0  0
  8 15  1  0  0  0
  9 11  2  0  0  0
  9 16  1  0  0  0
 35 38  1  0  0  0
 36 37  2  0  0  0
 36 27  1  0  0  0
 10 17  1  0  0  0
 10 18  1  0  0  0
 11 17  1  0  0  0
 11 19  1  0  0  0
  1  2  1  0  0  0
  1  3  1  0  0  0
  2  4  1  0  0  0
 12 13  1  0  0  0
 12 15  1  0  0  0
 13 16  1  0  0  0
  3  5  1  0  0  0
  4  6  1  0  0  0
 14 15  1  0  0  0
 14 16  1  0  0  0
 23 25  1  0  0  0
 23 27  1  0  0  0
 24 26  1  0  0  0
 24 27  1  0  0  0
 25 28  1  0  0  0
 26 28  1  0  0  0
  5  6  1  0  0  0
  5  7  1  0  0  0
  6 22  1  0  0  0
  7 17  1  0  0  0
 22 28  1  0  0  0
 37 38  1  0  0  0
 28 29  1  0  0  0
 18 20  1  0  0  0
 19 21  1  0  0  0
M  CHG 1  28   1
M  END
> <minimizedAffinity>
-9.82087

> <CNNscore>
0.4915509522

> <CNNaffinity>
7.2953557968

> <CNN_VS>
3.5860390663

> <CNNaffinity_variance>
0.1745431423

$$$$



 38 44  0  0  0  0  0  0  0  0999 V2000
   10.7288    1.3067   64.9386 C   0  0  0  0  0  0  0  0  0  0  0  0
   11.7304    2.0675   64.0770 C   0  0  0  0  0  0  0  0  0  0  0  0
   10.7746   -0.1965   64.6739 C   0  0  0  0  0  0  0  0  0  0  0  0
   11.5661    1.7466   62.5931 C   0  0  0  0  0  0  0  0  0  0  0  0
   10.6166   -0.5531   63.1860 C   0  0  0  0  0  0  0  0  0  0  0  0
   11.6025    0.2383   62.2932 C   0  0  0  0  0  0  0  0  0  0  0  0
    9.1673   -0.3500   62.7255 C   0  0  0  0  0  0  0  0  0  0  0  0
    8.6238   -0.8923   59.2084 C   0  0  0  0  0  0  0  0  0  0  0  0
    8.6819   -2.2197   59.6876 C   0  0  0  0  0  0  0  0  0  0  0  0
    8.7942   -0.0423   60.2592 C   0  0  0  0  0  0  0  0  0  0  0  0
    8.8880   -2.1876   61.0339 C   0  0  0  0  0  0  0  0  0  0  0  0
    6.9620   -1.5022   57.4965 C   0  0  0  0  0  0  0  0  0  0  0  0
    7.0265   -2.9728   58.0274 C   0  0  0  0  0  0  0  0  0  0  0  0
    9.2034   -2.2671   57.4118 C   0  0  0  0  0  0  0  0  0  0  0  0
    8.3972   -0.9634   57.7329 C   0  0  0  0  0  0  0  0  0  0  0  0
    8.4919   -3.1238   58.5130 C   0  0  0  0  0  0  0  0  0  0  0  0
    8.9553   -0.8464   61.3764 N   0  0  0  0  0  0  0  0  0  0  0  0
    8.8210    1.2798   60.3375 O   0  0  0  0  0  0  0  0  0  0  0  0
    9.0148   -3.1488   61.9367 O   0  0  0  0  0  0  0  0  0  0  0  0
    8.6917    1.7078   59.4612 H   0  0  0  0  0  0  0  0  0  0  0  0
    8.9436   -4.0456   61.5387 H   0  0  0  0  0  0  0  0  0  0  0  0
   13.0293   -0.3109   62.4218 C   0  0  0  0  0  0  0  0  0  0  0  0
   14.1468    0.4016   58.8371 C   0  0  0  0  0  0  0  0  0  0  0  0
   16.1110    0.6063   60.3519 C   0  0  0  0  0  0  0  0  0  0  0  0
   13.3614   -0.2788   59.9502 C   0  0  0  0  0  0  0  0  0  0  0  0
   15.3192   -0.0702   61.4638 C   0  0  0  0  0  0  0  0  0  0  0  0
   15.5906    0.2202   59.0366 N   0  0  0  0  0  0  0  0  0  0  0  0
   13.8522    0.2244   61.2839 N   0  0  0  0  0  0  0  0  0  0  0  0
   13.7419    1.2498   61.2850 H   0  0  0  0  0  0  0  0  0  0  0  0
   19.6825   -1.5165   58.6767 C   0  0  0  0  0  0  0  0  0  0  0  0
   20.2967   -1.2821   57.4513 C   0  0  0  0  0  0  0  0  0  0  0  0
   18.3961   -1.0307   58.9319 C   0  0  0  0  0  0  0  0  0  0  0  0
   19.6448   -0.5581   56.4502 C   0  0  0  0  0  0  0  0  0  0  0  0
   17.7136   -0.2955   57.9378 C   0  0  0  0  0  0  0  0  0  0  0  0
   18.3544   -0.0750   56.7168 C   0  0  0  0  0  0  0  0  0  0  0  0
   16.4177    0.3142   57.9112 C   0  0  0  0  0  0  0  0  0  0  0  0
   16.0556    0.9505   56.8021 N   0  0  0  0  0  0  0  0  0  0  0  0
   17.2972    0.8379   55.7121 S   0  0  0  0  0  0  0  0  0  0  0  0
 30 31  1  0  0  0
 30 32  2  0  0  0
 31 33  2  0  0  0
 32 34  1  0  0  0
 33 35  1  0  0  0
 34 35  2  0  0  0
 34 36  1  0  0  0
  8  9  1  0  0  0
  8 10  2  0  0  0
  8 15  1  0  0  0
  9 11  2  0  0  0
  9 16  1  0  0  0
 35 38  1  0  0  0
 36 37  2  0  0  0
 36 27  1  0  0  0
 10 17  1  0  0  0
 10 18  1  0  0  0
 11 17  1  0  0  0
 11 19  1  0  0  0
  1  2  1  0  0  0
  1  3  1  0  0  0
  2  4  1  0  0  0
 12 13  1  0  0  0
 12 15  1  0  0  0
 13 16  1  0  0  0
  3  5  1  0  0  0
  4  6  1  0  0  0
 14 15  1  0  0  0
 14 16  1  0  0  0
 23 25  1  0  0  0
 23 27  1  0  0  0
 24 26  1  0  0  0
 24 27  1  0  0  0
 25 28  1  0  0  0
 26 28  1  0  0  0
  5  6  1  0  0  0
  5  7  1  0  0  0
  6 22  1  0  0  0
  7 17  1  0  0  0
 22 28  1  0  0  0
 37 38  1  0  0  0
 28 29  1  0  0  0
 18 20  1  0  0  0
 19 21  1  0  0  0
M  CHG 1  28   1
M  END
> <minimizedAffinity>
-9.34768

> <CNNscore>
0.4552702308

> <CNNaffinity>
7.4493942261

> <CNN_VS>
3.3914873600

> <CNNaffinity_variance>
0.2420419455

$$$$



 38 44  0  0  0  0  0  0  0  0999 V2000
    9.8813    0.3435   65.0848 C   0  0  0  0  0  0  0  0  0  0  0  0
   10.9276    1.3084   64.5382 C   0  0  0  0  0  0  0  0  0  0  0  0
   10.0070   -1.0458   64.4638 C   0  0  0  0  0  0  0  0  0  0  0  0
   10.9101    1.3644   63.0123 C   0  0  0  0  0  0  0  0  0  0  0  0
    9.9975   -1.0233   62.9258 C   0  0  0  0  0  0  0  0  0  0  0  0
   11.0298   -0.0212   62.3552 C   0  0  0  0  0  0  0  0  0  0  0  0
    8.5891   -0.7320   62.3915 C   0  0  0  0  0  0  0  0  0  0  0  0
    6.6313   -3.7523   62.3226 C   0  0  0  0  0  0  0  0  0  0  0  0
    6.1690   -3.1496   63.5134 C   0  0  0  0  0  0  0  0  0  0  0  0
    7.5744   -2.9439   61.7633 C   0  0  0  0  0  0  0  0  0  0  0  0
    6.8271   -1.9695   63.6877 C   0  0  0  0  0  0  0  0  0  0  0  0
    4.4093   -4.7033   61.8510 C   0  0  0  0  0  0  0  0  0  0  0  0
    3.8972   -4.0356   63.1703 C   0  0  0  0  0  0  0  0  0  0  0  0
    5.7399   -5.4398   63.6685 C   0  0  0  0  0  0  0  0  0  0  0  0
    5.8911   -5.0406   62.1617 C   0  0  0  0  0  0  0  0  0  0  0  0
    5.1387   -4.0595   64.0997 C   0  0  0  0  0  0  0  0  0  0  0  0
    7.6879   -1.8511   62.6081 N   0  0  0  0  0  0  0  0  0  0  0  0
    8.2995   -3.0554   60.6602 O   0  0  0  0  0  0  0  0  0  0  0  0
    6.7569   -1.0441   64.6330 O   0  0  0  0  0  0  0  0  0  0  0  0
    8.1044   -3.8846   60.1682 H   0  0  0  0  0  0  0  0  0  0  0  0
    6.1006   -1.2718   65.3294 H   0  0  0  0  0  0  0  0  0  0  0  0
   12.4586   -0.5654   62.4821 C   0  0  0  0  0  0  0  0  0  0  0  0
   13.4640    0.7207   59.0264 C   0  0  0  0  0  0  0  0  0  0  0  0
   15.5218    0.1780   60.3170 C   0  0  0  0  0  0  0  0  0  0  0  0
   12.6249   -0.0295   60.0519 C   0  0  0  0  0  0  0  0  0  0  0  0
   14.6772   -0.5670   61.3430 C   0  0  0  0  0  0  0  0  0  0  0  0
   14.8435    0.2168   59.0176 N   0  0  0  0  0  0  0  0  0  0  0  0
   13.3010    0.0448   61.3974 N   0  0  0  0  0  0  0  0  0  0  0  0
   13.4172    1.0433   61.6282 H   0  0  0  0  0  0  0  0  0  0  0  0
   13.9965   -1.6633   55.0632 C   0  0  0  0  0  0  0  0  0  0  0  0
   14.8957   -1.3154   54.0611 C   0  0  0  0  0  0  0  0  0  0  0  0
   14.1383   -1.1486   56.3559 C   0  0  0  0  0  0  0  0  0  0  0  0
   15.9579   -0.4465   54.3218 C   0  0  0  0  0  0  0  0  0  0  0  0
   15.2031   -0.2680   56.6478 C   0  0  0  0  0  0  0  0  0  0  0  0
   16.0910    0.0641   55.6223 C   0  0  0  0  0  0  0  0  0  0  0  0
   15.5946    0.4029   57.8512 C   0  0  0  0  0  0  0  0  0  0  0  0
   16.6696    1.1829   57.8034 N   0  0  0  0  0  0  0  0  0  0  0  0
   17.2718    1.1402   56.2613 S   0  0  0  0  0  0  0  0  0  0  0  0
 30 31  1  0  0  0
 30 32  2  0  0  0
 31 33  2  0  0  0
 32 34  1  0  0  0
 33 35  1  0  0  0
 34 35  2  0  0  0
 34 36  1  0  0  0
  8  9  1  0  0  0
  8 10  2  0  0  0
  8 15  1  0  0  0
  9 11  2  0  0  0
  9 16  1  0  0  0
 35 38  1  0  0  0
 36 37  2  0  0  0
 36 27  1  0  0  0
 10 17  1  0  0  0
 10 18  1  0  0  0
 11 17  1  0  0  0
 11 19  1  0  0  0
  1  2  1  0  0  0
  1  3  1  0  0  0
  2  4  1  0  0  0
 12 13  1  0  0  0
 12 15  1  0  0  0
 13 16  1  0  0  0
  3  5  1  0  0  0
  4  6  1  0  0  0
 14 15  1  0  0  0
 14 16  1  0  0  0
 23 25  1  0  0  0
 23 27  1  0  0  0
 24 26  1  0  0  0
 24 27  1  0  0  0
 25 28  1  0  0  0
 26 28  1  0  0  0
  5  6  1  0  0  0
  5  7  1  0  0  0
  6 22  1  0  0  0
  7 17  1  0  0  0
 22 28  1  0  0  0
 37 38  1  0  0  0
 28 29  1  0  0  0
 18 20  1  0  0  0
 19 21  1  0  0  0
M  CHG 1  28   1
M  END
> <minimizedAffinity>
-9.29922

> <CNNscore>
0.4454840124

> <CNNaffinity>
7.1361684799

> <CNN_VS>
3.1790490150

> <CNNaffinity_variance>
0.2929242253

$$$$



 38 44  0  0  0  0  0  0  0  0999 V2000
   16.4474    0.5434   60.3304 C   0  0  0  0  0  0  0  0  0  0  0  0
   15.5568   -0.0837   61.3972 C   0  0  0  0  0  0  0  0  0  0  0  0
   15.6499    1.4112   59.3595 C   0  0  0  0  0  0  0  0  0  0  0  0
   14.3840   -0.8465   60.7851 C   0  0  0  0  0  0  0  0  0  0  0  0
   14.4572    0.6725   58.7287 C   0  0  0  0  0  0  0  0  0  0  0  0
   13.5626   -0.0008   59.7972 C   0  0  0  0  0  0  0  0  0  0  0  0
   14.9341   -0.3453   57.6845 C   0  0  0  0  0  0  0  0  0  0  0  0
   15.1628    0.8587   54.2995 C   0  0  0  0  0  0  0  0  0  0  0  0
   13.7631    0.8140   54.4837 C   0  0  0  0  0  0  0  0  0  0  0  0
   15.7663    0.4401   55.4468 C   0  0  0  0  0  0  0  0  0  0  0  0
   13.5041    0.3681   55.7447 C   0  0  0  0  0  0  0  0  0  0  0  0
   14.9854    2.8411   52.8494 C   0  0  0  0  0  0  0  0  0  0  0  0
   13.4348    2.7915   53.0534 C   0  0  0  0  0  0  0  0  0  0  0  0
   14.1767    0.7141   52.1875 C   0  0  0  0  0  0  0  0  0  0  0  0
   15.4114    1.3508   52.9105 C   0  0  0  0  0  0  0  0  0  0  0  0
   13.1334    1.2781   53.2103 C   0  0  0  0  0  0  0  0  0  0  0  0
   14.7401    0.1413   56.3291 N   0  0  0  0  0  0  0  0  0  0  0  0
   17.0407    0.3018   55.7812 O   0  0  0  0  0  0  0  0  0  0  0  0
   12.3708    0.1530   56.3960 O   0  0  0  0  0  0  0  0  0  0  0  0
   17.6475    0.5542   55.0492 H   0  0  0  0  0  0  0  0  0  0  0  0
   11.5808    0.3606   55.8479 H   0  0  0  0  0  0  0  0  0  0  0  0
   12.7118    1.0370   60.5410 C   0  0  0  0  0  0  0  0  0  0  0  0
    9.2613   -0.2039   61.6185 C   0  0  0  0  0  0  0  0  0  0  0  0
   10.8020   -0.3037   63.5706 C   0  0  0  0  0  0  0  0  0  0  0  0
   10.2686    0.6581   60.8695 C   0  0  0  0  0  0  0  0  0  0  0  0
   11.8087    0.5546   62.8151 C   0  0  0  0  0  0  0  0  0  0  0  0
    9.4437   -0.0710   63.0697 N   0  0  0  0  0  0  0  0  0  0  0  0
   11.6607    0.3134   61.3348 N   0  0  0  0  0  0  0  0  0  0  0  0
   11.7980   -0.6958   61.1723 H   0  0  0  0  0  0  0  0  0  0  0  0
    6.8614   -3.6951   62.7745 C   0  0  0  0  0  0  0  0  0  0  0  0
    5.8333   -3.7415   63.7098 C   0  0  0  0  0  0  0  0  0  0  0  0
    7.7510   -2.6161   62.7486 C   0  0  0  0  0  0  0  0  0  0  0  0
    5.6660   -2.7146   64.6419 C   0  0  0  0  0  0  0  0  0  0  0  0
    7.6053   -1.5639   63.6793 C   0  0  0  0  0  0  0  0  0  0  0  0
    6.5640   -1.6367   64.6070 C   0  0  0  0  0  0  0  0  0  0  0  0
    8.3462   -0.3563   63.8902 C   0  0  0  0  0  0  0  0  0  0  0  0
    7.9506    0.4494   64.8703 N   0  0  0  0  0  0  0  0  0  0  0  0
    6.6309   -0.2339   65.6011 S   0  0  0  0  0  0  0  0  0  0  0  0
 30 31  1  0  0  0
 30 32  2  0  0  0
 31 33  2  0  0  0
 32 34  1  0  0  0
 33 35  1  0  0  0
 34 35  2  0  0  0
 34 36  1  0  0  0
  8  9  1  0  0  0
  8 10  2  0  0  0
  8 15  1  0  0  0
  9 11  2  0  0  0
  9 16  1  0  0  0
 35 38  1  0  0  0
 36 37  2  0  0  0
 36 27  1  0  0  0
 10 17  1  0  0  0
 10 18  1  0  0  0
 11 17  1  0  0  0
 11 19  1  0  0  0
  1  2  1  0  0  0
  1  3  1  0  0  0
  2  4  1  0  0  0
 12 13  1  0  0  0
 12 15  1  0  0  0
 13 16  1  0  0  0
  3  5  1  0  0  0
  4  6  1  0  0  0
 14 15  1  0  0  0
 14 16  1  0  0  0
 23 25  1  0  0  0
 23 27  1  0  0  0
 24 26  1  0  0  0
 24 27  1  0  0  0
 25 28  1  0  0  0
 26 28  1  0  0  0
  5  6  1  0  0  0
  5  7  1  0  0  0
  6 22  1  0  0  0
  7 17  1  0  0  0
 22 28  1  0  0  0
 37 38  1  0  0  0
 28 29  1  0  0  0
 18 20  1  0  0  0
 19 21  1  0  0  0
M  CHG 1  28   1
M  END
> <minimizedAffinity>
-7.61732

> <CNNscore>
0.3633704185

> <CNNaffinity>
6.9536070824

> <CNN_VS>
2.5267350674

> <CNNaffinity_variance>
0.3127626777

$$$$



 38 44  0  0  0  0  0  0  0  0999 V2000
    8.4043   -0.6279   58.8360 C   0  0  0  0  0  0  0  0  0  0  0  0
    9.7683   -0.3525   58.2129 C   0  0  0  0  0  0  0  0  0  0  0  0
    8.3899   -0.3271   60.3330 C   0  0  0  0  0  0  0  0  0  0  0  0
   10.8898   -1.0814   58.9497 C   0  0  0  0  0  0  0  0  0  0  0  0
    9.5118   -1.0433   61.1041 C   0  0  0  0  0  0  0  0  0  0  0  0
   10.8996   -0.8033   60.4625 C   0  0  0  0  0  0  0  0  0  0  0  0
    9.2144   -2.5427   61.2355 C   0  0  0  0  0  0  0  0  0  0  0  0
    6.0213   -3.4598   62.6223 C   0  0  0  0  0  0  0  0  0  0  0  0
    6.6297   -2.8219   63.7259 C   0  0  0  0  0  0  0  0  0  0  0  0
    6.8903   -3.4378   61.5734 C   0  0  0  0  0  0  0  0  0  0  0  0
    7.8737   -2.4067   63.3570 C   0  0  0  0  0  0  0  0  0  0  0  0
    3.7952   -2.6333   63.2745 C   0  0  0  0  0  0  0  0  0  0  0  0
    4.4692   -1.9268   64.4973 C   0  0  0  0  0  0  0  0  0  0  0  0
    4.9722   -4.2418   64.5566 C   0  0  0  0  0  0  0  0  0  0  0  0
    4.6622   -3.9014   63.0597 C   0  0  0  0  0  0  0  0  0  0  0  0
    5.6525   -2.8633   64.8558 C   0  0  0  0  0  0  0  0  0  0  0  0
    8.0251   -2.7888   62.0335 N   0  0  0  0  0  0  0  0  0  0  0  0
    6.7992   -3.8967   60.3341 O   0  0  0  0  0  0  0  0  0  0  0  0
    8.8293   -1.7684   64.0160 O   0  0  0  0  0  0  0  0  0  0  0  0
    5.9339   -4.3310   60.1601 H   0  0  0  0  0  0  0  0  0  0  0  0
    8.5712   -1.5662   64.9435 H   0  0  0  0  0  0  0  0  0  0  0  0
   11.4071    0.6148   60.7549 C   0  0  0  0  0  0  0  0  0  0  0  0
   14.7273    1.2112   58.9585 C   0  0  0  0  0  0  0  0  0  0  0  0
   15.0590   -0.5187   60.7169 C   0  0  0  0  0  0  0  0  0  0  0  0
   13.2184    1.0634   59.1001 C   0  0  0  0  0  0  0  0  0  0  0  0
   13.5487   -0.6590   60.8585 C   0  0  0  0  0  0  0  0  0  0  0  0
   15.4101   -0.0174   59.3845 N   0  0  0  0  0  0  0  0  0  0  0  0
   12.8898    0.6516   60.5127 N   0  0  0  0  0  0  0  0  0  0  0  0
   13.2828    1.3688   61.1412 H   0  0  0  0  0  0  0  0  0  0  0  0
   16.6590    0.6102   55.1494 C   0  0  0  0  0  0  0  0  0  0  0  0
   17.9883    0.2923   54.8928 C   0  0  0  0  0  0  0  0  0  0  0  0
   16.1279    0.4629   56.4348 C   0  0  0  0  0  0  0  0  0  0  0  0
   18.8211   -0.1799   55.9101 C   0  0  0  0  0  0  0  0  0  0  0  0
   16.9471   -0.0125   57.4824 C   0  0  0  0  0  0  0  0  0  0  0  0
   18.2780   -0.3240   57.1962 C   0  0  0  0  0  0  0  0  0  0  0  0
   16.6886   -0.2609   58.8692 C   0  0  0  0  0  0  0  0  0  0  0  0
   17.6902   -0.7182   59.6133 N   0  0  0  0  0  0  0  0  0  0  0  0
   19.0253   -0.8726   58.6458 S   0  0  0  0  0  0  0  0  0  0  0  0
 30 31  1  0  0  0
 30 32  2  0  0  0
 31 33  2  0  0  0
 32 34  1  0  0  0
 33 35  1  0  0  0
 34 35  2  0  0  0
 34 36  1  0  0  0
  8  9  1  0  0  0
  8 10  2  0  0  0
  8 15  1  0  0  0
  9 11  2  0  0  0
  9 16  1  0  0  0
 35 38  1  0  0  0
 36 37  2  0  0  0
 36 27  1  0  0  0
 10 17  1  0  0  0
 10 18  1  0  0  0
 11 17  1  0  0  0
 11 19  1  0  0  0
  1  2  1  0  0  0
  1  3  1  0  0  0
  2  4  1  0  0  0
 12 13  1  0  0  0
 12 15  1  0  0  0
 13 16  1  0  0  0
  3  5  1  0  0  0
  4  6  1  0  0  0
 14 15  1  0  0  0
 14 16  1  0  0  0
 23 25  1  0  0  0
 23 27  1  0  0  0
 24 26  1  0  0  0
 24 27  1  0  0  0
 25 28  1  0  0  0
 26 28  1  0  0  0
  5  6  1  0  0  0
  5  7  1  0  0  0
  6 22  1  0  0  0
  7 17  1  0  0  0
 22 28  1  0  0  0
 37 38  1  0  0  0
 28 29  1  0  0  0
 18 20  1  0  0  0
 19 21  1  0  0  0
M  CHG 1  28   1
M  END
> <minimizedAffinity>
-8.60230

> <CNNscore>
0.3490738571

> <CNNaffinity>
6.9292998314

> <CNN_VS>
2.4188373089

> <CNNaffinity_variance>
0.2437798232

$$$$



 38 44  0  0  0  0  0  0  0  0999 V2000
    8.5191   -1.3207   59.7585 C   0  0  0  0  0  0  0  0  0  0  0  0
    9.9325   -1.0131   59.2767 C   0  0  0  0  0  0  0  0  0  0  0  0
    8.2021   -0.6228   61.0792 C   0  0  0  0  0  0  0  0  0  0  0  0
   10.9789   -1.3185   60.3462 C   0  0  0  0  0  0  0  0  0  0  0  0
    9.2412   -0.9067   62.1772 C   0  0  0  0  0  0  0  0  0  0  0  0
   10.6853   -0.6338   61.6920 C   0  0  0  0  0  0  0  0  0  0  0  0
    9.0972   -2.3382   62.7099 C   0  0  0  0  0  0  0  0  0  0  0  0
    5.8059   -2.6338   64.1381 C   0  0  0  0  0  0  0  0  0  0  0  0
    5.7142   -3.5230   63.0444 C   0  0  0  0  0  0  0  0  0  0  0  0
    7.0545   -2.0891   64.1527 C   0  0  0  0  0  0  0  0  0  0  0  0
    6.9064   -3.5262   62.3851 C   0  0  0  0  0  0  0  0  0  0  0  0
    4.3224   -4.0441   65.5072 C   0  0  0  0  0  0  0  0  0  0  0  0
    4.2208   -5.0290   64.2955 C   0  0  0  0  0  0  0  0  0  0  0  0
    3.5443   -2.8657   63.6040 C   0  0  0  0  0  0  0  0  0  0  0  0
    4.4855   -2.6544   64.8378 C   0  0  0  0  0  0  0  0  0  0  0  0
    4.3364   -4.1014   63.0578 C   0  0  0  0  0  0  0  0  0  0  0  0
    7.7236   -2.6430   63.0728 N   0  0  0  0  0  0  0  0  0  0  0  0
    7.6327   -1.2137   64.9615 O   0  0  0  0  0  0  0  0  0  0  0  0
    7.3271   -4.1803   61.3127 O   0  0  0  0  0  0  0  0  0  0  0  0
    7.0298   -0.9142   65.6788 H   0  0  0  0  0  0  0  0  0  0  0  0
    6.6327   -4.7680   60.9385 H   0  0  0  0  0  0  0  0  0  0  0  0
   10.9678    0.8722   61.6128 C   0  0  0  0  0  0  0  0  0  0  0  0
   13.3734    1.9407   58.8419 C   0  0  0  0  0  0  0  0  0  0  0  0
   14.4304    0.1228   60.1735 C   0  0  0  0  0  0  0  0  0  0  0  0
   12.0296    1.6295   59.4869 C   0  0  0  0  0  0  0  0  0  0  0  0
   13.0847   -0.1811   60.8197 C   0  0  0  0  0  0  0  0  0  0  0  0
   14.2450    0.7588   58.8653 N   0  0  0  0  0  0  0  0  0  0  0  0
   12.2586    1.0784   60.8714 N   0  0  0  0  0  0  0  0  0  0  0  0
   12.8015    1.7811   61.3960 H   0  0  0  0  0  0  0  0  0  0  0  0
   13.9144   -1.1643   54.8550 C   0  0  0  0  0  0  0  0  0  0  0  0
   15.0759   -1.0999   54.0932 C   0  0  0  0  0  0  0  0  0  0  0  0
   13.8714   -0.6025   56.1351 C   0  0  0  0  0  0  0  0  0  0  0  0
   16.2230   -0.4744   54.5876 C   0  0  0  0  0  0  0  0  0  0  0  0
   15.0165    0.0360   56.6602 C   0  0  0  0  0  0  0  0  0  0  0  0
   16.1690    0.0859   55.8732 C   0  0  0  0  0  0  0  0  0  0  0  0
   15.2666    0.6873   57.9111 C   0  0  0  0  0  0  0  0  0  0  0  0
   16.4759    1.2012   58.1105 N   0  0  0  0  0  0  0  0  0  0  0  0
   17.3896    0.9135   56.7597 S   0  0  0  0  0  0  0  0  0  0  0  0
 30 31  1  0  0  0
 30 32  2  0  0  0
 31 33  2  0  0  0
 32 34  1  0  0  0
 33 35  1  0  0  0
 34 35  2  0  0  0
 34 36  1  0  0  0
  8  9  1  0  0  0
  8 10  2  0  0  0
  8 15  1  0  0  0
  9 11  2  0  0  0
  9 16  1  0  0  0
 35 38  1  0  0  0
 36 37  2  0  0  0
 36 27  1  0  0  0
 10 17  1  0  0  0
 10 18  1  0  0  0
 11 17  1  0  0  0
 11 19  1  0  0  0
  1  2  1  0  0  0
  1  3  1  0  0  0
  2  4  1  0  0  0
 12 13  1  0  0  0
 12 15  1  0  0  0
 13 16  1  0  0  0
  3  5  1  0  0  0
  4  6  1  0  0  0
 14 15  1  0  0  0
 14 16  1  0  0  0
 23 25  1  0  0  0
 23 27  1  0  0  0
 24 26  1  0  0  0
 24 27  1  0  0  0
 25 28  1  0  0  0
 26 28  1  0  0  0
  5  6  1  0  0  0
  5  7  1  0  0  0
  6 22  1  0  0  0
  7 17  1  0  0  0
 22 28  1  0  0  0
 37 38  1  0  0  0
 28 29  1  0  0  0
 18 20  1  0  0  0
 19 21  1  0  0  0
M  CHG 1  28   1
M  END
> <minimizedAffinity>
-9.05369

> <CNNscore>
0.3087336719

> <CNNaffinity>
6.9378433228

> <CNN_VS>
2.1419458389

> <CNNaffinity_variance>
0.1871590167

$$$$



 38 44  0  0  0  0  0  0  0  0999 V2000
   10.5354    1.0171   65.1891 C   0  0  0  0  0  0  0  0  0  0  0  0
   11.5110    1.9274   64.4515 C   0  0  0  0  0  0  0  0  0  0  0  0
   10.6583   -0.4363   64.7370 C   0  0  0  0  0  0  0  0  0  0  0  0
   11.3839    1.7911   62.9359 C   0  0  0  0  0  0  0  0  0  0  0  0
   10.5394   -0.6071   63.2129 C   0  0  0  0  0  0  0  0  0  0  0  0
   11.4982    0.3368   62.4481 C   0  0  0  0  0  0  0  0  0  0  0  0
    9.0886   -0.4147   62.7523 C   0  0  0  0  0  0  0  0  0  0  0  0
    8.5802   -0.9270   59.2254 C   0  0  0  0  0  0  0  0  0  0  0  0
    8.6034   -2.2578   59.6982 C   0  0  0  0  0  0  0  0  0  0  0  0
    8.7549   -0.0863   60.2830 C   0  0  0  0  0  0  0  0  0  0  0  0
    8.7923   -2.2371   61.0473 C   0  0  0  0  0  0  0  0  0  0  0  0
    6.9284   -1.4922   57.4887 C   0  0  0  0  0  0  0  0  0  0  0  0
    6.9543   -2.9665   58.0124 C   0  0  0  0  0  0  0  0  0  0  0  0
    9.1538   -2.3048   57.4292 C   0  0  0  0  0  0  0  0  0  0  0  0
    8.3716   -0.9857   57.7468 C   0  0  0  0  0  0  0  0  0  0  0  0
    8.4095   -3.1516   58.5163 C   0  0  0  0  0  0  0  0  0  0  0  0
    8.8839   -0.8995   61.3979 N   0  0  0  0  0  0  0  0  0  0  0  0
    8.8091    1.2345   60.3688 O   0  0  0  0  0  0  0  0  0  0  0  0
    8.8865   -3.2054   61.9464 O   0  0  0  0  0  0  0  0  0  0  0  0
    8.7006    1.6696   59.4932 H   0  0  0  0  0  0  0  0  0  0  0  0
    8.8013   -4.0984   61.5427 H   0  0  0  0  0  0  0  0  0  0  0  0
   12.9481   -0.1572   62.5352 C   0  0  0  0  0  0  0  0  0  0  0  0
   13.6913    0.8205   58.9161 C   0  0  0  0  0  0  0  0  0  0  0  0
   15.8421    0.4249   60.1045 C   0  0  0  0  0  0  0  0  0  0  0  0
   12.9385    0.1563   60.0610 C   0  0  0  0  0  0  0  0  0  0  0  0
   15.0838   -0.2341   61.2497 C   0  0  0  0  0  0  0  0  0  0  0  0
   15.0765    0.3359   58.8571 N   0  0  0  0  0  0  0  0  0  0  0  0
   13.7029    0.3622   61.3441 N   0  0  0  0  0  0  0  0  0  0  0  0
   13.8152    1.3791   61.4751 H   0  0  0  0  0  0  0  0  0  0  0  0
   13.8322   -1.6873   55.0824 C   0  0  0  0  0  0  0  0  0  0  0  0
   14.6668   -1.4374   53.9986 C   0  0  0  0  0  0  0  0  0  0  0  0
   14.0995   -1.1184   56.3318 C   0  0  0  0  0  0  0  0  0  0  0  0
   15.7879   -0.6148   54.1325 C   0  0  0  0  0  0  0  0  0  0  0  0
   15.2261   -0.2827   56.4959 C   0  0  0  0  0  0  0  0  0  0  0  0
   16.0469   -0.0491   55.3905 C   0  0  0  0  0  0  0  0  0  0  0  0
   15.7429    0.4244   57.6293 C   0  0  0  0  0  0  0  0  0  0  0  0
   16.8482    1.1425   57.4596 N   0  0  0  0  0  0  0  0  0  0  0  0
   17.3257    0.9923   55.8811 S   0  0  0  0  0  0  0  0  0  0  0  0
 30 31  1  0  0  0
 30 32  2  0  0  0
 31 33  2  0  0  0
 32 34  1  0  0  0
 33 35  1  0  0  0
 34 35  2  0  0  0
 34 36  1  0  0  0
  8  9  1  0  0  0
  8 10  2  0  0  0
  8 15  1  0  0  0
  9 11  2  0  0  0
  9 16  1  0  0  0
 35 38  1  0  0  0
 36 37  2  0  0  0
 36 27  1  0  0  0
 10 17  1  0  0  0
 10 18  1  0  0  0
 11 17  1  0  0  0
 11 19  1  0  0  0
  1  2  1  0  0  0
  1  3  1  0  0  0
  2  4  1  0  0  0
 12 13  1  0  0  0
 12 15  1  0  0  0
 13 16  1  0  0  0
  3  5  1  0  0  0
  4  6  1  0  0  0
 14 15  1  0  0  0
 14 16  1  0  0  0
 23 25  1  0  0  0
 23 27  1  0  0  0
 24 26  1  0  0  0
 24 27  1  0  0  0
 25 28  1  0  0  0
 26 28  1  0  0  0
  5  6  1  0  0  0
  5  7  1  0  0  0
  6 22  1  0  0  0
  7 17  1  0  0  0
 22 28  1  0  0  0
 37 38  1  0  0  0
 28 29  1  0  0  0
 18 20  1  0  0  0
 19 21  1  0  0  0
M  CHG 1  28   1
M  END
> <minimizedAffinity>
-9.00484

> <CNNscore>
0.2966381311

> <CNNaffinity>
7.3527173996

> <CNN_VS>
2.1810963154

> <CNNaffinity_variance>
0.1208595186

$$$$



 26 27  0  0  0  0  0  0  0  0999 V2000
   14.1757    0.1007   57.2123 C   0  0  0  0  0  0  0  0  0  0  0  0
   13.2202    0.4420   58.0227 N   0  0  0  0  0  0  0  0  0  0  0  0
   13.7765    0.9653   53.5482 C   0  0  0  0  0  0  0  0  0  0  0  0
   13.2843   -0.2335   53.0324 C   0  0  0  0  0  0  0  0  0  0  0  0
   14.0662    1.0726   54.9085 C   0  0  0  0  0  0  0  0  0  0  0  0
   13.0816   -1.3250   53.8768 C   0  0  0  0  0  0  0  0  0  0  0  0
   13.8635   -0.0190   55.7530 C   0  0  0  0  0  0  0  0  0  0  0  0
   13.3712   -1.2177   55.2371 C   0  0  0  0  0  0  0  0  0  0  0  0
   13.1720   -2.2738   56.0391 F   0  0  0  0  0  0  0  0  0  0  0  0
   16.5862    0.0801   56.7686 C   0  0  0  0  0  0  0  0  0  0  0  0
   15.5796   -0.2470   57.5916 C   0  0  0  0  0  0  0  0  0  0  0  0
   18.3812   -0.9038   58.1753 C   0  0  0  0  0  0  0  0  0  0  0  0
   18.9676    0.1134   56.0638 C   0  0  0  0  0  0  0  0  0  0  0  0
   19.7233   -1.2093   58.4009 C   0  0  0  0  0  0  0  0  0  0  0  0
   20.3097   -0.1921   56.2893 C   0  0  0  0  0  0  0  0  0  0  0  0
   18.0033   -0.2424   57.0068 C   0  0  0  0  0  0  0  0  0  0  0  0
   20.6877   -0.8535   57.4579 C   0  0  0  0  0  0  0  0  0  0  0  0
   21.9973   -1.1517   57.6780 O   0  0  0  0  0  0  0  0  0  0  0  0
   22.5419   -0.8420   56.9368 H   0  0  0  0  0  0  0  0  0  0  0  0
   12.0109    0.6459   57.3474 O   0  0  0  0  0  0  0  0  0  0  0  0
   11.4503    1.8680   57.8087 C   0  0  0  0  0  0  0  0  0  0  0  0
   10.5750    1.6006   59.0172 C   0  0  0  0  0  0  0  0  0  0  0  0
   10.7883    3.3490   60.7776 C   0  0  0  0  0  0  0  0  0  0  0  0
   11.2858    0.9699   61.3189 C   0  0  0  0  0  0  0  0  0  0  0  0
   11.2990    2.0348   60.2596 N   0  0  0  0  0  0  0  0  0  0  0  0
   12.2828    2.1806   59.9958 H   0  0  0  0  0  0  0  0  0  0  0  0
  3  4  1  0  0  0
  3  5  2  0  0  0
  4  6  2  0  0  0
  5  7  1  0  0  0
 12 14  2  0  0  0
 12 16  1  0  0  0
 13 15  1  0  0  0
 13 16  2  0  0  0
 14 17  1  0  0  0
 15 17  2  0  0  0
  6  8  1  0  0  0
 16 10  1  0  0  0
  7  8  2  0  0  0
  7  1  1  0  0  0
 17 18  1  0  0  0
  8  9  1  0  0  0
 10 11  2  0  0  0
 11  1  1  0  0  0
  1  2  2  0  0  0
 23 25  1  0  0  0
 24 25  1  0  0  0
 22 21  1  0  0  0
 22 25  1  0  0  0
 21 20  1  0  0  0
  2 20  1  0  0  0
 25 26  1  0  0  0
 18 19  1  0  0  0
M  CHG 1  25   1
M  END
> <minimizedAffinity>
-8.05306

> <CNNscore>
0.7971810699

> <CNNaffinity>
6.7069230080

> <CNN_VS>
5.3466320038

> <CNNaffinity_variance>
0.0454581976

$$$$



 26 27  0  0  0  0  0  0  0  0999 V2000
   14.5277    0.0424   57.4785 C   0  0  0  0  0  0  0  0  0  0  0  0
   13.9913    0.7846   58.3992 N   0  0  0  0  0  0  0  0  0  0  0  0
   11.8831   -1.4186   55.1974 C   0  0  0  0  0  0  0  0  0  0  0  0
   12.2222   -0.8409   53.9740 C   0  0  0  0  0  0  0  0  0  0  0  0
   12.6342   -1.1302   56.3370 C   0  0  0  0  0  0  0  0  0  0  0  0
   13.3124    0.0250   53.8900 C   0  0  0  0  0  0  0  0  0  0  0  0
   13.7244   -0.2642   56.2530 C   0  0  0  0  0  0  0  0  0  0  0  0
   14.0636    0.3133   55.0295 C   0  0  0  0  0  0  0  0  0  0  0  0
   15.1096    1.1471   54.9362 F   0  0  0  0  0  0  0  0  0  0  0  0
   16.9741    0.1518   57.3745 C   0  0  0  0  0  0  0  0  0  0  0  0
   15.8761   -0.6015   57.5312 C   0  0  0  0  0  0  0  0  0  0  0  0
   19.1869   -0.1064   56.2766 C   0  0  0  0  0  0  0  0  0  0  0  0
   18.8241   -1.1167   58.4410 C   0  0  0  0  0  0  0  0  0  0  0  0
   20.4926   -0.5970   56.2665 C   0  0  0  0  0  0  0  0  0  0  0  0
   20.1297   -1.6073   58.4309 C   0  0  0  0  0  0  0  0  0  0  0  0
   18.3527   -0.3662   57.3638 C   0  0  0  0  0  0  0  0  0  0  0  0
   20.9641   -1.3475   57.3436 C   0  0  0  0  0  0  0  0  0  0  0  0
   22.2381   -1.8261   57.3338 O   0  0  0  0  0  0  0  0  0  0  0  0
   22.4162   -2.3252   58.1469 H   0  0  0  0  0  0  0  0  0  0  0  0
   12.6930    1.1823   58.0586 O   0  0  0  0  0  0  0  0  0  0  0  0
   11.9249    1.2457   59.2530 C   0  0  0  0  0  0  0  0  0  0  0  0
   12.1146   -0.0317   60.0468 C   0  0  0  0  0  0  0  0  0  0  0  0
   11.7771    0.3874   62.4784 C   0  0  0  0  0  0  0  0  0  0  0  0
   13.8887   -0.6611   61.6769 C   0  0  0  0  0  0  0  0  0  0  0  0
   12.7728    0.2923   61.3577 N   0  0  0  0  0  0  0  0  0  0  0  0
   13.1969    1.2242   61.2559 H   0  0  0  0  0  0  0  0  0  0  0  0
  3  4  1  0  0  0
  3  5  2  0  0  0
  4  6  2  0  0  0
  5  7  1  0  0  0
 12 14  2  0  0  0
 12 16  1  0  0  0
 13 15  1  0  0  0
 13 16  2  0  0  0
 14 17  1  0  0  0
 15 17  2  0  0  0
  6  8  1  0  0  0
 16 10  1  0  0  0
  7  8  2  0  0  0
  7  1  1  0  0  0
 17 18  1  0  0  0
  8  9  1  0  0  0
 10 11  2  0  0  0
 11  1  1  0  0  0
  1  2  2  0  0  0
 23 25  1  0  0  0
 24 25  1  0  0  0
 22 21  1  0  0  0
 22 25  1  0  0  0
 21 20  1  0  0  0
  2 20  1  0  0  0
 25 26  1  0  0  0
 18 19  1  0  0  0
M  CHG 1  25   1
M  END
> <minimizedAffinity>
-8.07832

> <CNNscore>
0.7443556786

> <CNNaffinity>
6.6922426224

> <CNN_VS>
4.9814085960

> <CNNaffinity_variance>
0.0424957983

$$$$



 26 27  0  0  0  0  0  0  0  0999 V2000
    9.9798    0.2359   58.2114 C   0  0  0  0  0  0  0  0  0  0  0  0
    9.7656    1.3941   58.7584 N   0  0  0  0  0  0  0  0  0  0  0  0
    7.1424   -2.2639   58.3916 C   0  0  0  0  0  0  0  0  0  0  0  0
    7.5586   -3.0805   59.4429 C   0  0  0  0  0  0  0  0  0  0  0  0
    7.9313   -1.1851   57.9919 C   0  0  0  0  0  0  0  0  0  0  0  0
    8.7636   -2.8184   60.0947 C   0  0  0  0  0  0  0  0  0  0  0  0
    9.1363   -0.9230   58.6437 C   0  0  0  0  0  0  0  0  0  0  0  0
    9.5525   -1.7396   59.6951 C   0  0  0  0  0  0  0  0  0  0  0  0
   10.7087   -1.4975   60.3295 F   0  0  0  0  0  0  0  0  0  0  0  0
   12.3255    0.1457   57.5064 C   0  0  0  0  0  0  0  0  0  0  0  0
   11.0397   -0.0897   57.2083 C   0  0  0  0  0  0  0  0  0  0  0  0
   14.7431    0.3008   56.9589 C   0  0  0  0  0  0  0  0  0  0  0  0
   13.2386   -0.7072   55.3598 C   0  0  0  0  0  0  0  0  0  0  0  0
   15.8136    0.0766   56.0933 C   0  0  0  0  0  0  0  0  0  0  0  0
   14.3090   -0.9316   54.4942 C   0  0  0  0  0  0  0  0  0  0  0  0
   13.4557   -0.0911   56.5923 C   0  0  0  0  0  0  0  0  0  0  0  0
   15.5965   -0.5396   54.8608 C   0  0  0  0  0  0  0  0  0  0  0  0
   16.6411   -0.7586   54.0161 O   0  0  0  0  0  0  0  0  0  0  0  0
   16.3323   -1.1924   53.2047 H   0  0  0  0  0  0  0  0  0  0  0  0
    8.7315    1.3431   59.7006 O   0  0  0  0  0  0  0  0  0  0  0  0
    8.9082    2.4244   60.6063 C   0  0  0  0  0  0  0  0  0  0  0  0
   10.2433    2.2837   61.3104 C   0  0  0  0  0  0  0  0  0  0  0  0
   11.6392    0.6749   62.6007 C   0  0  0  0  0  0  0  0  0  0  0  0
    9.2251    0.9461   63.1476 C   0  0  0  0  0  0  0  0  0  0  0  0
   10.2696    0.9874   62.0689 N   0  0  0  0  0  0  0  0  0  0  0  0
   10.0340    0.2442   61.3973 H   0  0  0  0  0  0  0  0  0  0  0  0
  3  4  1  0  0  0
  3  5  2  0  0  0
  4  6  2  0  0  0
  5  7  1  0  0  0
 12 14  2  0  0  0
 12 16  1  0  0  0
 13 15  1  0  0  0
 13 16  2  0  0  0
 14 17  1  0  0  0
 15 17  2  0  0  0
  6  8  1  0  0  0
 16 10  1  0  0  0
  7  8  2  0  0  0
  7  1  1  0  0  0
 17 18  1  0  0  0
  8  9  1  0  0  0
 10 11  2  0  0  0
 11  1  1  0  0  0
  1  2  2  0  0  0
 23 25  1  0  0  0
 24 25  1  0  0  0
 22 21  1  0  0  0
 22 25  1  0  0  0
 21 20  1  0  0  0
  2 20  1  0  0  0
 25 26  1  0  0  0
 18 19  1  0  0  0
M  CHG 1  25   1
M  END
> <minimizedAffinity>
-7.66476

> <CNNscore>
0.6015534997

> <CNNaffinity>
6.0695919991

> <CNN_VS>
3.6511843204

> <CNNaffinity_variance>
0.0581438914

$$$$



 26 27  0  0  0  0  0  0  0  0999 V2000
   14.3804   -0.2424   57.1802 C   0  0  0  0  0  0  0  0  0  0  0  0
   13.5113    0.1095   58.0786 N   0  0  0  0  0  0  0  0  0  0  0  0
   13.7677    0.9148   53.6281 C   0  0  0  0  0  0  0  0  0  0  0  0
   13.1833   -0.2191   53.0639 C   0  0  0  0  0  0  0  0  0  0  0  0
   14.1568    0.9057   54.9676 C   0  0  0  0  0  0  0  0  0  0  0  0
   12.9877   -1.3619   53.8392 C   0  0  0  0  0  0  0  0  0  0  0  0
   13.9613   -0.2372   55.7429 C   0  0  0  0  0  0  0  0  0  0  0  0
   13.3768   -1.3710   55.1788 C   0  0  0  0  0  0  0  0  0  0  0  0
   13.1835   -2.4755   55.9142 F   0  0  0  0  0  0  0  0  0  0  0  0
   16.8110    0.0211   57.0051 C   0  0  0  0  0  0  0  0  0  0  0  0
   15.7760   -0.7161   57.4327 C   0  0  0  0  0  0  0  0  0  0  0  0
   19.1480   -0.0092   56.1648 C   0  0  0  0  0  0  0  0  0  0  0  0
   18.6475   -1.0563   58.2838 C   0  0  0  0  0  0  0  0  0  0  0  0
   20.4893   -0.3651   56.3057 C   0  0  0  0  0  0  0  0  0  0  0  0
   19.9888   -1.4122   58.4247 C   0  0  0  0  0  0  0  0  0  0  0  0
   18.2271   -0.3548   57.1539 C   0  0  0  0  0  0  0  0  0  0  0  0
   20.9097   -1.0667   57.4357 C   0  0  0  0  0  0  0  0  0  0  0  0
   22.2186   -1.4139   57.5732 O   0  0  0  0  0  0  0  0  0  0  0  0
   22.3534   -1.8944   58.4056 H   0  0  0  0  0  0  0  0  0  0  0  0
   12.2782    0.4467   57.5080 O   0  0  0  0  0  0  0  0  0  0  0  0
   11.2604   -0.2435   58.2210 C   0  0  0  0  0  0  0  0  0  0  0  0
   10.3234   -0.9202   57.2400 C   0  0  0  0  0  0  0  0  0  0  0  0
    9.5087   -1.7552   59.4403 C   0  0  0  0  0  0  0  0  0  0  0  0
    8.1598   -2.1446   57.3837 C   0  0  0  0  0  0  0  0  0  0  0  0
    9.5392   -1.9828   57.9558 N   0  0  0  0  0  0  0  0  0  0  0  0
   10.0324   -2.8725   57.8009 H   0  0  0  0  0  0  0  0  0  0  0  0
  3  4  1  0  0  0
  3  5  2  0  0  0
  4  6  2  0  0  0
  5  7  1  0  0  0
 12 14  2  0  0  0
 12 16  1  0  0  0
 13 15  1  0  0  0
 13 16  2  0  0  0
 14 17  1  0  0  0
 15 17  2  0  0  0
  6  8  1  0  0  0
 16 10  1  0  0  0
  7  8  2  0  0  0
  7  1  1  0  0  0
 17 18  1  0  0  0
  8  9  1  0  0  0
 10 11  2  0  0  0
 11  1  1  0  0  0
  1  2  2  0  0  0
 23 25  1  0  0  0
 24 25  1  0  0  0
 22 21  1  0  0  0
 22 25  1  0  0  0
 21 20  1  0  0  0
  2 20  1  0  0  0
 25 26  1  0  0  0
 18 19  1  0  0  0
M  CHG 1  25   1
M  END
> <minimizedAffinity>
-7.83934

> <CNNscore>
0.5786284804

> <CNNaffinity>
6.2677593231

> <CNN_VS>
3.6267039776

> <CNNaffinity_variance>
0.0968061388

$$$$



 26 27  0  0  0  0  0  0  0  0999 V2000
   10.8323    0.4915   59.0359 C   0  0  0  0  0  0  0  0  0  0  0  0
   10.4448    1.5653   59.6549 N   0  0  0  0  0  0  0  0  0  0  0  0
    8.1164   -1.7974   57.7255 C   0  0  0  0  0  0  0  0  0  0  0  0
    8.0828   -2.7817   58.7131 C   0  0  0  0  0  0  0  0  0  0  0  0
    9.0116   -0.7329   57.8318 C   0  0  0  0  0  0  0  0  0  0  0  0
    8.9442   -2.7015   59.8072 C   0  0  0  0  0  0  0  0  0  0  0  0
    9.8731   -0.6528   58.9258 C   0  0  0  0  0  0  0  0  0  0  0  0
    9.8394   -1.6370   59.9136 C   0  0  0  0  0  0  0  0  0  0  0  0
   10.6625   -1.5706   60.9701 F   0  0  0  0  0  0  0  0  0  0  0  0
   13.2456    0.1284   59.2631 C   0  0  0  0  0  0  0  0  0  0  0  0
   12.1856    0.2439   58.4503 C   0  0  0  0  0  0  0  0  0  0  0  0
   14.9623    0.1168   57.4683 C   0  0  0  0  0  0  0  0  0  0  0  0
   15.6156   -0.4553   59.7228 C   0  0  0  0  0  0  0  0  0  0  0  0
   16.2756   -0.0745   57.0391 C   0  0  0  0  0  0  0  0  0  0  0  0
   16.9289   -0.6465   59.2937 C   0  0  0  0  0  0  0  0  0  0  0  0
   14.6323   -0.0736   58.8101 C   0  0  0  0  0  0  0  0  0  0  0  0
   17.2590   -0.4562   57.9519 C   0  0  0  0  0  0  0  0  0  0  0  0
   18.5405   -0.6427   57.5331 O   0  0  0  0  0  0  0  0  0  0  0  0
   19.1034   -0.9045   58.2792 H   0  0  0  0  0  0  0  0  0  0  0  0
    9.1331    1.4492   60.1302 O   0  0  0  0  0  0  0  0  0  0  0  0
    9.0721    2.0686   61.4082 C   0  0  0  0  0  0  0  0  0  0  0  0
   10.4750    2.2418   61.9557 C   0  0  0  0  0  0  0  0  0  0  0  0
    9.4628    0.4544   63.3637 C   0  0  0  0  0  0  0  0  0  0  0  0
   11.8975    0.4013   62.8443 C   0  0  0  0  0  0  0  0  0  0  0  0
   10.6930    1.2676   63.0782 N   0  0  0  0  0  0  0  0  0  0  0  0
   10.8852    1.8237   63.9224 H   0  0  0  0  0  0  0  0  0  0  0  0
  3  4  1  0  0  0
  3  5  2  0  0  0
  4  6  2  0  0  0
  5  7  1  0  0  0
 12 14  2  0  0  0
 12 16  1  0  0  0
 13 15  1  0  0  0
 13 16  2  0  0  0
 14 17  1  0  0  0
 15 17  2  0  0  0
  6  8  1  0  0  0
 16 10  1  0  0  0
  7  8  2  0  0  0
  7  1  1  0  0  0
 17 18  1  0  0  0
  8  9  1  0  0  0
 10 11  2  0  0  0
 11  1  1  0  0  0
  1  2  2  0  0  0
 23 25  1  0  0  0
 24 25  1  0  0  0
 22 21  1  0  0  0
 22 25  1  0  0  0
 21 20  1  0  0  0
  2 20  1  0  0  0
 25 26  1  0  0  0
 18 19  1  0  0  0
M  CHG 1  25   1
M  END
> <minimizedAffinity>
-7.32706

> <CNNscore>
0.4485928416

> <CNNaffinity>
6.1769094467

> <CNN_VS>
2.7709174156

> <CNNaffinity_variance>
0.0686070845

$$$$



 26 27  0  0  0  0  0  0  0  0999 V2000
    9.9447    0.1297   60.4444 C   0  0  0  0  0  0  0  0  0  0  0  0
    8.9477   -0.2069   59.6834 N   0  0  0  0  0  0  0  0  0  0  0  0
   13.3313    0.7376   58.8655 C   0  0  0  0  0  0  0  0  0  0  0  0
   13.2966    2.1162   58.6569 C   0  0  0  0  0  0  0  0  0  0  0  0
   12.2399    0.0925   59.4472 C   0  0  0  0  0  0  0  0  0  0  0  0
   12.1707    2.8499   59.0301 C   0  0  0  0  0  0  0  0  0  0  0  0
   11.1138    0.8262   59.8204 C   0  0  0  0  0  0  0  0  0  0  0  0
   11.0792    2.2049   59.6119 C   0  0  0  0  0  0  0  0  0  0  0  0
   10.0024    2.9209   59.9667 F   0  0  0  0  0  0  0  0  0  0  0  0
    9.2215   -0.9964   62.4978 C   0  0  0  0  0  0  0  0  0  0  0  0
   10.0819   -0.1558   61.9057 C   0  0  0  0  0  0  0  0  0  0  0  0
    9.1695   -0.3069   64.8833 C   0  0  0  0  0  0  0  0  0  0  0  0
    9.2816   -2.6588   64.3422 C   0  0  0  0  0  0  0  0  0  0  0  0
    9.1721   -0.6195   66.2426 C   0  0  0  0  0  0  0  0  0  0  0  0
    9.2841   -2.9714   65.7015 C   0  0  0  0  0  0  0  0  0  0  0  0
    9.2242   -1.3265   63.9331 C   0  0  0  0  0  0  0  0  0  0  0  0
    9.2294   -1.9518   66.6518 C   0  0  0  0  0  0  0  0  0  0  0  0
    9.2318   -2.2568   67.9782 O   0  0  0  0  0  0  0  0  0  0  0  0
    9.2748   -3.2184   68.1022 H   0  0  0  0  0  0  0  0  0  0  0  0
    9.1607    0.1627   58.3501 O   0  0  0  0  0  0  0  0  0  0  0  0
    8.9006   -0.9707   57.5326 C   0  0  0  0  0  0  0  0  0  0  0  0
    9.1700   -2.2373   58.3206 C   0  0  0  0  0  0  0  0  0  0  0  0
    7.5474   -3.3397   59.8548 C   0  0  0  0  0  0  0  0  0  0  0  0
    6.7643   -2.3815   57.6939 C   0  0  0  0  0  0  0  0  0  0  0  0
    7.9012   -3.0343   58.4272 N   0  0  0  0  0  0  0  0  0  0  0  0
    8.0759   -3.9363   57.9639 H   0  0  0  0  0  0  0  0  0  0  0  0
  3  4  1  0  0  0
  3  5  2  0  0  0
  4  6  2  0  0  0
  5  7  1  0  0  0
 12 14  2  0  0  0
 12 16  1  0  0  0
 13 15  1  0  0  0
 13 16  2  0  0  0
 14 17  1  0  0  0
 15 17  2  0  0  0
  6  8  1  0  0  0
 16 10  1  0  0  0
  7  8  2  0  0  0
  7  1  1  0  0  0
 17 18  1  0  0  0
  8  9  1  0  0  0
 10 11  2  0  0  0
 11  1  1  0  0  0
  1  2  2  0  0  0
 23 25  1  0  0  0
 24 25  1  0  0  0
 22 21  1  0  0  0
 22 25  1  0  0  0
 21 20  1  0  0  0
  2 20  1  0  0  0
 25 26  1  0  0  0
 18 19  1  0  0  0
M  CHG 1  25   1
M  END
> <minimizedAffinity>
-6.98963

> <CNNscore>
0.4401371479

> <CNNaffinity>
5.7716979980

> <CNN_VS>
2.5403387547

> <CNNaffinity_variance>
0.2182709724

$$$$



 26 27  0  0  0  0  0  0  0  0999 V2000
   14.8372    0.0895   57.0729 C   0  0  0  0  0  0  0  0  0  0  0  0
   16.1064    0.0248   57.3398 N   0  0  0  0  0  0  0  0  0  0  0  0
   14.0410    0.8428   53.4493 C   0  0  0  0  0  0  0  0  0  0  0  0
   13.5823   -0.3964   53.0027 C   0  0  0  0  0  0  0  0  0  0  0  0
   14.4490    0.9994   54.7740 C   0  0  0  0  0  0  0  0  0  0  0  0
   13.5315   -1.4789   53.8807 C   0  0  0  0  0  0  0  0  0  0  0  0
   14.3983   -0.0832   55.6520 C   0  0  0  0  0  0  0  0  0  0  0  0
   13.9394   -1.3224   55.2054 C   0  0  0  0  0  0  0  0  0  0  0  0
   13.8858   -2.3703   56.0402 F   0  0  0  0  0  0  0  0  0  0  0  0
   12.7105    1.1515   57.6704 C   0  0  0  0  0  0  0  0  0  0  0  0
   13.7390    0.3777   58.0459 C   0  0  0  0  0  0  0  0  0  0  0  0
   10.4327    0.7679   58.5830 C   0  0  0  0  0  0  0  0  0  0  0  0
   11.6916    2.6881   59.3347 C   0  0  0  0  0  0  0  0  0  0  0  0
    9.3732    1.1384   59.4112 C   0  0  0  0  0  0  0  0  0  0  0  0
   10.6322    3.0585   60.1629 C   0  0  0  0  0  0  0  0  0  0  0  0
   11.5919    1.5428   58.5448 C   0  0  0  0  0  0  0  0  0  0  0  0
    9.4729    2.2838   60.2011 C   0  0  0  0  0  0  0  0  0  0  0  0
    8.4391    2.6452   61.0093 O   0  0  0  0  0  0  0  0  0  0  0  0
    8.6580    3.4581   61.4922 H   0  0  0  0  0  0  0  0  0  0  0  0
   16.8705   -0.2066   56.1898 O   0  0  0  0  0  0  0  0  0  0  0  0
   18.1164    0.4592   56.3483 C   0  0  0  0  0  0  0  0  0  0  0  0
   19.2452   -0.4802   55.9727 C   0  0  0  0  0  0  0  0  0  0  0  0
   19.5068   -1.2558   58.3247 C   0  0  0  0  0  0  0  0  0  0  0  0
   21.4439   -1.3422   56.7625 C   0  0  0  0  0  0  0  0  0  0  0  0
   20.1799   -0.6239   57.1399 N   0  0  0  0  0  0  0  0  0  0  0  0
   20.4510    0.3274   57.4235 H   0  0  0  0  0  0  0  0  0  0  0  0
  3  4  1  0  0  0
  3  5  2  0  0  0
  4  6  2  0  0  0
  5  7  1  0  0  0
 12 14  2  0  0  0
 12 16  1  0  0  0
 13 15  1  0  0  0
 13 16  2  0  0  0
 14 17  1  0  0  0
 15 17  2  0  0  0
  6  8  1  0  0  0
 16 10  1  0  0  0
  7  8  2  0  0  0
  7  1  1  0  0  0
 17 18  1  0  0  0
  8  9  1  0  0  0
 10 11  2  0  0  0
 11  1  1  0  0  0
  1  2  2  0  0  0
 23 25  1  0  0  0
 24 25  1  0  0  0
 22 21  1  0  0  0
 22 25  1  0  0  0
 21 20  1  0  0  0
  2 20  1  0  0  0
 25 26  1  0  0  0
 18 19  1  0  0  0
M  CHG 1  25   1
M  END
> <minimizedAffinity>
-8.07492

> <CNNscore>
0.4367700815

> <CNNaffinity>
6.1567864418

> <CNN_VS>
2.6891000271

> <CNNaffinity_variance>
0.1213010103

$$$$



 26 27  0  0  0  0  0  0  0  0999 V2000
    9.1990   -0.5631   60.1989 C   0  0  0  0  0  0  0  0  0  0  0  0
    8.6915   -1.0245   59.0962 N   0  0  0  0  0  0  0  0  0  0  0  0
    9.7962    3.1583   60.5551 C   0  0  0  0  0  0  0  0  0  0  0  0
   11.1153    3.2707   60.1161 C   0  0  0  0  0  0  0  0  0  0  0  0
    9.1739    1.9101   60.5815 C   0  0  0  0  0  0  0  0  0  0  0  0
   11.8121    2.1352   59.7034 C   0  0  0  0  0  0  0  0  0  0  0  0
    9.8708    0.7745   60.1689 C   0  0  0  0  0  0  0  0  0  0  0  0
   11.1899    0.8870   59.7297 C   0  0  0  0  0  0  0  0  0  0  0  0
   11.8699   -0.1974   59.3303 F   0  0  0  0  0  0  0  0  0  0  0  0
    9.3052   -0.5391   62.6475 C   0  0  0  0  0  0  0  0  0  0  0  0
    9.2345   -1.2617   61.5203 C   0  0  0  0  0  0  0  0  0  0  0  0
    9.1540   -2.4664   64.2067 C   0  0  0  0  0  0  0  0  0  0  0  0
    9.7013   -0.2837   65.0861 C   0  0  0  0  0  0  0  0  0  0  0  0
    9.2328   -3.0038   65.4915 C   0  0  0  0  0  0  0  0  0  0  0  0
    9.7801   -0.8211   66.3708 C   0  0  0  0  0  0  0  0  0  0  0  0
    9.3883   -1.1064   64.0040 C   0  0  0  0  0  0  0  0  0  0  0  0
    9.5458   -2.1811   66.5736 C   0  0  0  0  0  0  0  0  0  0  0  0
    9.6227   -2.7055   67.8272 O   0  0  0  0  0  0  0  0  0  0  0  0
    9.8479   -2.0126   68.4684 H   0  0  0  0  0  0  0  0  0  0  0  0
    8.8755   -0.1402   58.0267 O   0  0  0  0  0  0  0  0  0  0  0  0
    8.9607   -0.9063   56.8323 C   0  0  0  0  0  0  0  0  0  0  0  0
    8.6505   -2.3584   57.1376 C   0  0  0  0  0  0  0  0  0  0  0  0
    6.9492   -3.2946   55.5785 C   0  0  0  0  0  0  0  0  0  0  0  0
    6.5541   -3.3574   58.0362 C   0  0  0  0  0  0  0  0  0  0  0  0
    7.1902   -2.6148   56.8960 N   0  0  0  0  0  0  0  0  0  0  0  0
    6.7306   -1.6956   56.8456 H   0  0  0  0  0  0  0  0  0  0  0  0
  3  4  1  0  0  0
  3  5  2  0  0  0
  4  6  2  0  0  0
  5  7  1  0  0  0
 12 14  2  0  0  0
 12 16  1  0  0  0
 13 15  1  0  0  0
 13 16  2  0  0  0
 14 17  1  0  0  0
 15 17  2  0  0  0
  6  8  1  0  0  0
 16 10  1  0  0  0
  7  8  2  0  0  0
  7  1  1  0  0  0
 17 18  1  0  0  0
  8  9  1  0  0  0
 10 11  2  0  0  0
 11  1  1  0  0  0
  1  2  2  0  0  0
 23 25  1  0  0  0
 24 25  1  0  0  0
 22 21  1  0  0  0
 22 25  1  0  0  0
 21 20  1  0  0  0
  2 20  1  0  0  0
 25 26  1  0  0  0
 18 19  1  0  0  0
M  CHG 1  25   1
M  END
> <minimizedAffinity>
-6.68371

> <CNNscore>
0.4183253348

> <CNNaffinity>
5.7681403160

> <CNN_VS>
2.4129593372

> <CNNaffinity_variance>
0.2622065842

$$$$



 26 27  0  0  0  0  0  0  0  0999 V2000
   14.8504    0.3999   56.9567 C   0  0  0  0  0  0  0  0  0  0  0  0
   16.0985    0.7585   56.9495 N   0  0  0  0  0  0  0  0  0  0  0  0
   13.7154   -2.5562   54.8819 C   0  0  0  0  0  0  0  0  0  0  0  0
   13.3787   -1.9373   53.6781 C   0  0  0  0  0  0  0  0  0  0  0  0
   14.1941   -1.7945   55.9479 C   0  0  0  0  0  0  0  0  0  0  0  0
   13.5209   -0.5566   53.5403 C   0  0  0  0  0  0  0  0  0  0  0  0
   14.3362   -0.4137   55.8100 C   0  0  0  0  0  0  0  0  0  0  0  0
   13.9996    0.2052   54.6062 C   0  0  0  0  0  0  0  0  0  0  0  0
   14.1322    1.5317   54.4617 F   0  0  0  0  0  0  0  0  0  0  0  0
   12.6048    1.1477   57.5937 C   0  0  0  0  0  0  0  0  0  0  0  0
   13.8282    0.7639   57.9855 C   0  0  0  0  0  0  0  0  0  0  0  0
   11.7017    2.6863   59.3217 C   0  0  0  0  0  0  0  0  0  0  0  0
   10.3300    0.8546   58.5468 C   0  0  0  0  0  0  0  0  0  0  0  0
   10.6804    3.0866   60.1833 C   0  0  0  0  0  0  0  0  0  0  0  0
    9.3087    1.2549   59.4083 C   0  0  0  0  0  0  0  0  0  0  0  0
   11.5264    1.5703   58.5034 C   0  0  0  0  0  0  0  0  0  0  0  0
    9.4839    2.3709   60.2267 C   0  0  0  0  0  0  0  0  0  0  0  0
    8.4873    2.7616   61.0673 O   0  0  0  0  0  0  0  0  0  0  0  0
    7.7242    2.1679   60.9832 H   0  0  0  0  0  0  0  0  0  0  0  0
   16.7684    0.2939   55.8114 O   0  0  0  0  0  0  0  0  0  0  0  0
   18.1657    0.4015   56.0491 C   0  0  0  0  0  0  0  0  0  0  0  0
   18.5236   -0.3458   57.3185 C   0  0  0  0  0  0  0  0  0  0  0  0
   20.7994   -0.2728   56.3098 C   0  0  0  0  0  0  0  0  0  0  0  0
   20.4099   -1.5478   58.4130 C   0  0  0  0  0  0  0  0  0  0  0  0
   19.8192   -1.0781   57.1143 N   0  0  0  0  0  0  0  0  0  0  0  0
   19.6023   -1.9199   56.5637 H   0  0  0  0  0  0  0  0  0  0  0  0
  3  4  1  0  0  0
  3  5  2  0  0  0
  4  6  2  0  0  0
  5  7  1  0  0  0
 12 14  2  0  0  0
 12 16  1  0  0  0
 13 15  1  0  0  0
 13 16  2  0  0  0
 14 17  1  0  0  0
 15 17  2  0  0  0
  6  8  1  0  0  0
 16 10  1  0  0  0
  7  8  2  0  0  0
  7  1  1  0  0  0
 17 18  1  0  0  0
  8  9  1  0  0  0
 10 11  2  0  0  0
 11  1  1  0  0  0
  1  2  2  0  0  0
 23 25  1  0  0  0
 24 25  1  0  0  0
 22 21  1  0  0  0
 22 25  1  0  0  0
 21 20  1  0  0  0
  2 20  1  0  0  0
 25 26  1  0  0  0
 18 19  1  0  0  0
M  CHG 1  25   1
M  END
> <minimizedAffinity>
-8.14937

> <CNNscore>
0.3814074099

> <CNNaffinity>
6.1100873947

> <CNN_VS>
2.3304326534

> <CNNaffinity_variance>
0.1484954655

$$$$
